Circuit: * Z:\home\muffin\Documents\fall-2013\6.332\project\simulations\ResonantRectifier3_HBAT540B_v1.asc

Direct Newton iteration for .op point succeeded.
.step iin=0.25
.step iin=0.23
.step iin=0.21
.step iin=0.18
.step iin=0.15
.step iin=0.12
.step iin=0.09
.step iin=0.06
.step iin=0.03


Measurement: pin
  step	AVG(v(rin1)*i(rrin1))	FROM	TO
     1	0.683719	0	1.2245e-009
     2	0.611815	0	1.2245e-009
     3	0.541365	0	1.2245e-009
     4	0.438317	0	1.2245e-009
     5	0.338478	0	1.2245e-009
     6	0.242148	0	1.2245e-009
     7	0.147833	0	1.2245e-009
     8	0.048154	0	1.2245e-009
     9	0.0230826	0	1.2245e-009

Measurement: pout
  step	AVG(v(load)*i(rlf1))	FROM	TO
     1	0.519173	0	1.2245e-009
     2	0.461776	0	1.2245e-009
     3	0.405044	0	1.2245e-009
     4	0.321154	0	1.2245e-009
     5	0.238884	0	1.2245e-009
     6	0.158719	0	1.2245e-009
     7	0.0795943	0	1.2245e-009
     8	-0.0042251	0	1.2245e-009
     9	-0.00544346	0	1.2245e-009

Measurement: eff
  step	AVG(pout/pin)	FROM	TO
     1	0.759337	0	1.2245e-009
     2	0.754764	0	1.2245e-009
     3	0.74819	0	1.2245e-009
     4	0.732699	0	1.2245e-009
     5	0.70576	0	1.2245e-009
     6	0.655464	0	1.2245e-009
     7	0.538408	0	1.2245e-009
     8	-0.0877414	0	1.2245e-009
     9	-0.235826	0	1.2245e-009

Measurement: iin1pp1
  step	PP(i(rrin1))	FROM	TO
     1	0.499992	0	1.2245e-009
     2	0.459999	0	1.2245e-009
     3	0.419999	0	1.2245e-009
     4	0.359998	0	1.2245e-009
     5	0.3	0	1.2245e-009
     6	0.239997	0	1.2245e-009
     7	0.17998	0	1.2245e-009
     8	0.119997	0	1.2245e-009
     9	0.06	0	1.2245e-009

Measurement: vin1pp1
  step	PP(v(rinfund1))	FROM	TO
     1	8.71913	0	1.2245e-009
     2	8.4912	0	1.2245e-009
     3	8.30709	0	1.2245e-009
     4	8.11054	0	1.2245e-009
     5	8.00048	0	1.2245e-009
     6	7.95711	0	1.2245e-009
     7	7.92997	0	1.2245e-009
     8	7.75392	0	1.2245e-009
     9	6.45898	0	1.2245e-009

Measurement: zmag1
  step	AVG(vin1pp1/iin1pp1)	FROM	TO
     1	17.4386	0	1.2245e-009
     2	18.4592	0	1.2245e-009
     3	19.7788	0	1.2245e-009
     4	22.5294	0	1.2245e-009
     5	26.6683	0	1.2245e-009
     6	33.1551	0	1.2245e-009
     7	44.0604	0	1.2245e-009
     8	64.6177	0	1.2245e-009
     9	107.65	0	1.2245e-009

Measurement: coszphase1
  step	AVG(8*i(rrin1)*v(rinfund1)/(iin1pp1*vin1pp1))	FROM	TO
     1	1.00067	0	1.2245e-009
     2	0.999364	0	1.2245e-009
     3	0.98991	0	1.2245e-009
     4	0.957612	0	1.2245e-009
     5	0.899465	0	1.2245e-009
     6	0.808575	0	1.2245e-009
     7	0.66033	0	1.2245e-009
     8	0.329515	0	1.2245e-009
     9	0.379415	0	1.2245e-009

Measurement: idpk
  step	MAX(i(d1))	FROM	TO
     1	0.313122	0	1.2245e-009
     2	0.297809	0	1.2245e-009
     3	0.28263	0	1.2245e-009
     4	0.259902	0	1.2245e-009
     5	0.236951	0	1.2245e-009
     6	0.21337	0	1.2245e-009
     7	0.188493	0	1.2245e-009
     8	0.158795	0	1.2245e-009
     9	0.112379	0	1.2245e-009

Measurement: vdpk
  step	MAX(v(dk1_int1)-v(da1_int1))	FROM	TO
     1	31.4481	0	1.2245e-009
     2	30.8663	0	1.2245e-009
     3	30.2601	0	1.2245e-009
     4	29.2991	0	1.2245e-009
     5	28.2581	0	1.2245e-009
     6	27.1038	0	1.2245e-009
     7	25.7767	0	1.2245e-009
     8	23.9961	0	1.2245e-009
     9	19.6632	0	1.2245e-009


Date: Sun Dec 15 00:57:29 2013
Total elapsed time: 83.193 seconds.

tnom = 27
temp = 27
method = modified trap
totiter = 1000101
traniter = 1000097
tranpoints = 500033
accept = 500030
rejected = 3
matrix size = 15
fillins = 3
solver = Normal
Matrix Compiler1: 966 bytes object code size  2.1/2.1/[1.6]
Matrix Compiler2: off  [1.8]/2.0/2.6



