Circuit: * Z:\home\muffin\Documents\fall-2013\6.332\project\simulations\ResonantRectifier3_HBAT540B_v1.asc

Direct Newton iteration for .op point succeeded.
.step iin=0.25 lr=1.6e-009 vo=7.5
.step iin=0.23 lr=1.6e-009 vo=7.5
.step iin=0.21 lr=1.6e-009 vo=7.5
.step iin=0.18 lr=1.6e-009 vo=7.5
.step iin=0.15 lr=1.6e-009 vo=7.5
.step iin=0.12 lr=1.6e-009 vo=7.5
.step iin=0.09 lr=1.6e-009 vo=7.5
.step iin=0.06 lr=1.6e-009 vo=7.5
.step iin=0.03 lr=1.6e-009 vo=7.5
.step iin=0.25 lr=1.9e-009 vo=7.5
.step iin=0.23 lr=1.9e-009 vo=7.5
.step iin=0.21 lr=1.9e-009 vo=7.5
.step iin=0.18 lr=1.9e-009 vo=7.5
.step iin=0.15 lr=1.9e-009 vo=7.5
.step iin=0.12 lr=1.9e-009 vo=7.5
.step iin=0.09 lr=1.9e-009 vo=7.5
.step iin=0.06 lr=1.9e-009 vo=7.5
.step iin=0.03 lr=1.9e-009 vo=7.5
.step iin=0.25 lr=2.1e-009 vo=7.5
.step iin=0.23 lr=2.1e-009 vo=7.5
.step iin=0.21 lr=2.1e-009 vo=7.5
.step iin=0.18 lr=2.1e-009 vo=7.5
.step iin=0.15 lr=2.1e-009 vo=7.5
.step iin=0.12 lr=2.1e-009 vo=7.5
.step iin=0.09 lr=2.1e-009 vo=7.5
.step iin=0.06 lr=2.1e-009 vo=7.5
.step iin=0.03 lr=2.1e-009 vo=7.5
.step iin=0.25 lr=2.2e-009 vo=7.5
.step iin=0.23 lr=2.2e-009 vo=7.5
.step iin=0.21 lr=2.2e-009 vo=7.5
.step iin=0.18 lr=2.2e-009 vo=7.5
.step iin=0.15 lr=2.2e-009 vo=7.5
.step iin=0.12 lr=2.2e-009 vo=7.5
.step iin=0.09 lr=2.2e-009 vo=7.5
.step iin=0.06 lr=2.2e-009 vo=7.5
.step iin=0.03 lr=2.2e-009 vo=7.5
.step iin=0.25 lr=2.3e-009 vo=7.5
.step iin=0.23 lr=2.3e-009 vo=7.5
.step iin=0.21 lr=2.3e-009 vo=7.5
.step iin=0.18 lr=2.3e-009 vo=7.5
.step iin=0.15 lr=2.3e-009 vo=7.5
.step iin=0.12 lr=2.3e-009 vo=7.5
.step iin=0.09 lr=2.3e-009 vo=7.5
.step iin=0.06 lr=2.3e-009 vo=7.5
.step iin=0.03 lr=2.3e-009 vo=7.5
.step iin=0.25 lr=2.4e-009 vo=7.5
.step iin=0.23 lr=2.4e-009 vo=7.5
.step iin=0.21 lr=2.4e-009 vo=7.5
.step iin=0.18 lr=2.4e-009 vo=7.5
.step iin=0.15 lr=2.4e-009 vo=7.5
.step iin=0.12 lr=2.4e-009 vo=7.5
.step iin=0.09 lr=2.4e-009 vo=7.5
.step iin=0.06 lr=2.4e-009 vo=7.5
.step iin=0.03 lr=2.4e-009 vo=7.5
.step iin=0.25 lr=2.7e-009 vo=7.5
.step iin=0.23 lr=2.7e-009 vo=7.5
.step iin=0.21 lr=2.7e-009 vo=7.5
.step iin=0.18 lr=2.7e-009 vo=7.5
.step iin=0.15 lr=2.7e-009 vo=7.5
.step iin=0.12 lr=2.7e-009 vo=7.5
.step iin=0.09 lr=2.7e-009 vo=7.5
.step iin=0.06 lr=2.7e-009 vo=7.5
.step iin=0.03 lr=2.7e-009 vo=7.5
.step iin=0.25 lr=3e-009 vo=7.5
.step iin=0.23 lr=3e-009 vo=7.5
.step iin=0.21 lr=3e-009 vo=7.5
.step iin=0.18 lr=3e-009 vo=7.5
.step iin=0.15 lr=3e-009 vo=7.5
.step iin=0.12 lr=3e-009 vo=7.5
.step iin=0.09 lr=3e-009 vo=7.5
.step iin=0.06 lr=3e-009 vo=7.5
.step iin=0.03 lr=3e-009 vo=7.5
.step iin=0.25 lr=1.6e-009 vo=8
.step iin=0.23 lr=1.6e-009 vo=8
.step iin=0.21 lr=1.6e-009 vo=8
.step iin=0.18 lr=1.6e-009 vo=8
.step iin=0.15 lr=1.6e-009 vo=8
.step iin=0.12 lr=1.6e-009 vo=8
.step iin=0.09 lr=1.6e-009 vo=8
.step iin=0.06 lr=1.6e-009 vo=8
.step iin=0.03 lr=1.6e-009 vo=8
.step iin=0.25 lr=1.9e-009 vo=8
.step iin=0.23 lr=1.9e-009 vo=8
.step iin=0.21 lr=1.9e-009 vo=8
.step iin=0.18 lr=1.9e-009 vo=8
.step iin=0.15 lr=1.9e-009 vo=8
.step iin=0.12 lr=1.9e-009 vo=8
.step iin=0.09 lr=1.9e-009 vo=8
.step iin=0.06 lr=1.9e-009 vo=8
.step iin=0.03 lr=1.9e-009 vo=8
.step iin=0.25 lr=2.1e-009 vo=8
.step iin=0.23 lr=2.1e-009 vo=8
.step iin=0.21 lr=2.1e-009 vo=8
.step iin=0.18 lr=2.1e-009 vo=8
.step iin=0.15 lr=2.1e-009 vo=8
.step iin=0.12 lr=2.1e-009 vo=8
.step iin=0.09 lr=2.1e-009 vo=8
.step iin=0.06 lr=2.1e-009 vo=8
.step iin=0.03 lr=2.1e-009 vo=8
.step iin=0.25 lr=2.2e-009 vo=8
.step iin=0.23 lr=2.2e-009 vo=8
.step iin=0.21 lr=2.2e-009 vo=8
.step iin=0.18 lr=2.2e-009 vo=8
.step iin=0.15 lr=2.2e-009 vo=8
.step iin=0.12 lr=2.2e-009 vo=8
.step iin=0.09 lr=2.2e-009 vo=8
.step iin=0.06 lr=2.2e-009 vo=8
.step iin=0.03 lr=2.2e-009 vo=8
.step iin=0.25 lr=2.3e-009 vo=8
.step iin=0.23 lr=2.3e-009 vo=8
.step iin=0.21 lr=2.3e-009 vo=8
.step iin=0.18 lr=2.3e-009 vo=8
.step iin=0.15 lr=2.3e-009 vo=8
.step iin=0.12 lr=2.3e-009 vo=8
.step iin=0.09 lr=2.3e-009 vo=8
.step iin=0.06 lr=2.3e-009 vo=8
.step iin=0.03 lr=2.3e-009 vo=8
.step iin=0.25 lr=2.4e-009 vo=8
.step iin=0.23 lr=2.4e-009 vo=8
.step iin=0.21 lr=2.4e-009 vo=8
.step iin=0.18 lr=2.4e-009 vo=8
.step iin=0.15 lr=2.4e-009 vo=8
.step iin=0.12 lr=2.4e-009 vo=8
.step iin=0.09 lr=2.4e-009 vo=8
.step iin=0.06 lr=2.4e-009 vo=8
.step iin=0.03 lr=2.4e-009 vo=8
.step iin=0.25 lr=2.7e-009 vo=8
.step iin=0.23 lr=2.7e-009 vo=8
.step iin=0.21 lr=2.7e-009 vo=8
.step iin=0.18 lr=2.7e-009 vo=8
.step iin=0.15 lr=2.7e-009 vo=8
.step iin=0.12 lr=2.7e-009 vo=8
.step iin=0.09 lr=2.7e-009 vo=8
.step iin=0.06 lr=2.7e-009 vo=8
.step iin=0.03 lr=2.7e-009 vo=8
.step iin=0.25 lr=3e-009 vo=8
.step iin=0.23 lr=3e-009 vo=8
.step iin=0.21 lr=3e-009 vo=8
.step iin=0.18 lr=3e-009 vo=8
.step iin=0.15 lr=3e-009 vo=8
.step iin=0.12 lr=3e-009 vo=8
.step iin=0.09 lr=3e-009 vo=8
.step iin=0.06 lr=3e-009 vo=8
.step iin=0.03 lr=3e-009 vo=8
.step iin=0.25 lr=1.6e-009 vo=8.5
.step iin=0.23 lr=1.6e-009 vo=8.5
.step iin=0.21 lr=1.6e-009 vo=8.5
.step iin=0.18 lr=1.6e-009 vo=8.5
.step iin=0.15 lr=1.6e-009 vo=8.5
.step iin=0.12 lr=1.6e-009 vo=8.5
.step iin=0.09 lr=1.6e-009 vo=8.5
.step iin=0.06 lr=1.6e-009 vo=8.5
.step iin=0.03 lr=1.6e-009 vo=8.5
.step iin=0.25 lr=1.9e-009 vo=8.5
.step iin=0.23 lr=1.9e-009 vo=8.5
.step iin=0.21 lr=1.9e-009 vo=8.5
.step iin=0.18 lr=1.9e-009 vo=8.5
.step iin=0.15 lr=1.9e-009 vo=8.5
.step iin=0.12 lr=1.9e-009 vo=8.5
.step iin=0.09 lr=1.9e-009 vo=8.5
.step iin=0.06 lr=1.9e-009 vo=8.5
.step iin=0.03 lr=1.9e-009 vo=8.5
.step iin=0.25 lr=2.1e-009 vo=8.5
.step iin=0.23 lr=2.1e-009 vo=8.5
.step iin=0.21 lr=2.1e-009 vo=8.5
.step iin=0.18 lr=2.1e-009 vo=8.5
.step iin=0.15 lr=2.1e-009 vo=8.5
.step iin=0.12 lr=2.1e-009 vo=8.5
.step iin=0.09 lr=2.1e-009 vo=8.5
.step iin=0.06 lr=2.1e-009 vo=8.5
.step iin=0.03 lr=2.1e-009 vo=8.5
.step iin=0.25 lr=2.2e-009 vo=8.5
.step iin=0.23 lr=2.2e-009 vo=8.5
.step iin=0.21 lr=2.2e-009 vo=8.5
.step iin=0.18 lr=2.2e-009 vo=8.5
.step iin=0.15 lr=2.2e-009 vo=8.5
.step iin=0.12 lr=2.2e-009 vo=8.5
.step iin=0.09 lr=2.2e-009 vo=8.5
.step iin=0.06 lr=2.2e-009 vo=8.5
.step iin=0.03 lr=2.2e-009 vo=8.5
.step iin=0.25 lr=2.3e-009 vo=8.5
.step iin=0.23 lr=2.3e-009 vo=8.5
.step iin=0.21 lr=2.3e-009 vo=8.5
.step iin=0.18 lr=2.3e-009 vo=8.5
.step iin=0.15 lr=2.3e-009 vo=8.5
.step iin=0.12 lr=2.3e-009 vo=8.5
.step iin=0.09 lr=2.3e-009 vo=8.5
.step iin=0.06 lr=2.3e-009 vo=8.5
.step iin=0.03 lr=2.3e-009 vo=8.5
.step iin=0.25 lr=2.4e-009 vo=8.5
.step iin=0.23 lr=2.4e-009 vo=8.5
.step iin=0.21 lr=2.4e-009 vo=8.5
.step iin=0.18 lr=2.4e-009 vo=8.5
.step iin=0.15 lr=2.4e-009 vo=8.5
.step iin=0.12 lr=2.4e-009 vo=8.5
.step iin=0.09 lr=2.4e-009 vo=8.5
.step iin=0.06 lr=2.4e-009 vo=8.5
.step iin=0.03 lr=2.4e-009 vo=8.5
.step iin=0.25 lr=2.7e-009 vo=8.5
.step iin=0.23 lr=2.7e-009 vo=8.5
.step iin=0.21 lr=2.7e-009 vo=8.5
.step iin=0.18 lr=2.7e-009 vo=8.5
.step iin=0.15 lr=2.7e-009 vo=8.5
.step iin=0.12 lr=2.7e-009 vo=8.5
.step iin=0.09 lr=2.7e-009 vo=8.5
.step iin=0.06 lr=2.7e-009 vo=8.5
.step iin=0.03 lr=2.7e-009 vo=8.5
.step iin=0.25 lr=3e-009 vo=8.5
.step iin=0.23 lr=3e-009 vo=8.5
.step iin=0.21 lr=3e-009 vo=8.5
.step iin=0.18 lr=3e-009 vo=8.5
.step iin=0.15 lr=3e-009 vo=8.5
.step iin=0.12 lr=3e-009 vo=8.5
.step iin=0.09 lr=3e-009 vo=8.5
.step iin=0.06 lr=3e-009 vo=8.5
.step iin=0.03 lr=3e-009 vo=8.5
.step iin=0.25 lr=1.6e-009 vo=9
.step iin=0.23 lr=1.6e-009 vo=9
.step iin=0.21 lr=1.6e-009 vo=9
.step iin=0.18 lr=1.6e-009 vo=9
.step iin=0.15 lr=1.6e-009 vo=9
.step iin=0.12 lr=1.6e-009 vo=9
.step iin=0.09 lr=1.6e-009 vo=9
.step iin=0.06 lr=1.6e-009 vo=9
.step iin=0.03 lr=1.6e-009 vo=9
.step iin=0.25 lr=1.9e-009 vo=9
.step iin=0.23 lr=1.9e-009 vo=9
.step iin=0.21 lr=1.9e-009 vo=9
.step iin=0.18 lr=1.9e-009 vo=9
.step iin=0.15 lr=1.9e-009 vo=9
.step iin=0.12 lr=1.9e-009 vo=9
.step iin=0.09 lr=1.9e-009 vo=9
.step iin=0.06 lr=1.9e-009 vo=9
.step iin=0.03 lr=1.9e-009 vo=9
.step iin=0.25 lr=2.1e-009 vo=9
.step iin=0.23 lr=2.1e-009 vo=9
.step iin=0.21 lr=2.1e-009 vo=9
.step iin=0.18 lr=2.1e-009 vo=9
.step iin=0.15 lr=2.1e-009 vo=9
.step iin=0.12 lr=2.1e-009 vo=9
.step iin=0.09 lr=2.1e-009 vo=9
.step iin=0.06 lr=2.1e-009 vo=9
.step iin=0.03 lr=2.1e-009 vo=9
.step iin=0.25 lr=2.2e-009 vo=9
.step iin=0.23 lr=2.2e-009 vo=9
.step iin=0.21 lr=2.2e-009 vo=9
.step iin=0.18 lr=2.2e-009 vo=9
.step iin=0.15 lr=2.2e-009 vo=9
.step iin=0.12 lr=2.2e-009 vo=9
.step iin=0.09 lr=2.2e-009 vo=9
.step iin=0.06 lr=2.2e-009 vo=9
.step iin=0.03 lr=2.2e-009 vo=9
.step iin=0.25 lr=2.3e-009 vo=9
.step iin=0.23 lr=2.3e-009 vo=9
.step iin=0.21 lr=2.3e-009 vo=9
.step iin=0.18 lr=2.3e-009 vo=9
.step iin=0.15 lr=2.3e-009 vo=9
.step iin=0.12 lr=2.3e-009 vo=9
.step iin=0.09 lr=2.3e-009 vo=9
.step iin=0.06 lr=2.3e-009 vo=9
.step iin=0.03 lr=2.3e-009 vo=9
.step iin=0.25 lr=2.4e-009 vo=9
.step iin=0.23 lr=2.4e-009 vo=9
.step iin=0.21 lr=2.4e-009 vo=9
.step iin=0.18 lr=2.4e-009 vo=9
.step iin=0.15 lr=2.4e-009 vo=9
.step iin=0.12 lr=2.4e-009 vo=9
.step iin=0.09 lr=2.4e-009 vo=9
.step iin=0.06 lr=2.4e-009 vo=9
.step iin=0.03 lr=2.4e-009 vo=9
.step iin=0.25 lr=2.7e-009 vo=9
.step iin=0.23 lr=2.7e-009 vo=9
.step iin=0.21 lr=2.7e-009 vo=9
.step iin=0.18 lr=2.7e-009 vo=9
.step iin=0.15 lr=2.7e-009 vo=9
.step iin=0.12 lr=2.7e-009 vo=9
.step iin=0.09 lr=2.7e-009 vo=9
.step iin=0.06 lr=2.7e-009 vo=9
.step iin=0.03 lr=2.7e-009 vo=9
.step iin=0.25 lr=3e-009 vo=9
.step iin=0.23 lr=3e-009 vo=9
.step iin=0.21 lr=3e-009 vo=9
.step iin=0.18 lr=3e-009 vo=9
.step iin=0.15 lr=3e-009 vo=9
.step iin=0.12 lr=3e-009 vo=9
.step iin=0.09 lr=3e-009 vo=9
.step iin=0.06 lr=3e-009 vo=9
.step iin=0.03 lr=3e-009 vo=9
.step iin=0.25 lr=1.6e-009 vo=9.5
.step iin=0.23 lr=1.6e-009 vo=9.5
.step iin=0.21 lr=1.6e-009 vo=9.5
.step iin=0.18 lr=1.6e-009 vo=9.5
.step iin=0.15 lr=1.6e-009 vo=9.5
.step iin=0.12 lr=1.6e-009 vo=9.5
.step iin=0.09 lr=1.6e-009 vo=9.5
.step iin=0.06 lr=1.6e-009 vo=9.5
.step iin=0.03 lr=1.6e-009 vo=9.5
.step iin=0.25 lr=1.9e-009 vo=9.5
.step iin=0.23 lr=1.9e-009 vo=9.5
.step iin=0.21 lr=1.9e-009 vo=9.5
.step iin=0.18 lr=1.9e-009 vo=9.5
.step iin=0.15 lr=1.9e-009 vo=9.5
.step iin=0.12 lr=1.9e-009 vo=9.5
.step iin=0.09 lr=1.9e-009 vo=9.5
.step iin=0.06 lr=1.9e-009 vo=9.5
.step iin=0.03 lr=1.9e-009 vo=9.5
.step iin=0.25 lr=2.1e-009 vo=9.5
.step iin=0.23 lr=2.1e-009 vo=9.5
.step iin=0.21 lr=2.1e-009 vo=9.5
.step iin=0.18 lr=2.1e-009 vo=9.5
.step iin=0.15 lr=2.1e-009 vo=9.5
.step iin=0.12 lr=2.1e-009 vo=9.5
.step iin=0.09 lr=2.1e-009 vo=9.5
.step iin=0.06 lr=2.1e-009 vo=9.5
.step iin=0.03 lr=2.1e-009 vo=9.5
.step iin=0.25 lr=2.2e-009 vo=9.5
.step iin=0.23 lr=2.2e-009 vo=9.5
.step iin=0.21 lr=2.2e-009 vo=9.5
.step iin=0.18 lr=2.2e-009 vo=9.5
.step iin=0.15 lr=2.2e-009 vo=9.5
.step iin=0.12 lr=2.2e-009 vo=9.5
.step iin=0.09 lr=2.2e-009 vo=9.5
.step iin=0.06 lr=2.2e-009 vo=9.5
.step iin=0.03 lr=2.2e-009 vo=9.5
.step iin=0.25 lr=2.3e-009 vo=9.5
.step iin=0.23 lr=2.3e-009 vo=9.5
.step iin=0.21 lr=2.3e-009 vo=9.5
.step iin=0.18 lr=2.3e-009 vo=9.5
.step iin=0.15 lr=2.3e-009 vo=9.5
.step iin=0.12 lr=2.3e-009 vo=9.5
.step iin=0.09 lr=2.3e-009 vo=9.5
.step iin=0.06 lr=2.3e-009 vo=9.5
.step iin=0.03 lr=2.3e-009 vo=9.5
.step iin=0.25 lr=2.4e-009 vo=9.5
.step iin=0.23 lr=2.4e-009 vo=9.5
.step iin=0.21 lr=2.4e-009 vo=9.5
.step iin=0.18 lr=2.4e-009 vo=9.5
.step iin=0.15 lr=2.4e-009 vo=9.5
.step iin=0.12 lr=2.4e-009 vo=9.5
.step iin=0.09 lr=2.4e-009 vo=9.5
.step iin=0.06 lr=2.4e-009 vo=9.5
.step iin=0.03 lr=2.4e-009 vo=9.5
.step iin=0.25 lr=2.7e-009 vo=9.5
.step iin=0.23 lr=2.7e-009 vo=9.5
.step iin=0.21 lr=2.7e-009 vo=9.5
.step iin=0.18 lr=2.7e-009 vo=9.5
.step iin=0.15 lr=2.7e-009 vo=9.5
.step iin=0.12 lr=2.7e-009 vo=9.5
.step iin=0.09 lr=2.7e-009 vo=9.5
.step iin=0.06 lr=2.7e-009 vo=9.5
.step iin=0.03 lr=2.7e-009 vo=9.5
.step iin=0.25 lr=3e-009 vo=9.5
.step iin=0.23 lr=3e-009 vo=9.5
.step iin=0.21 lr=3e-009 vo=9.5
.step iin=0.18 lr=3e-009 vo=9.5
.step iin=0.15 lr=3e-009 vo=9.5
.step iin=0.12 lr=3e-009 vo=9.5
.step iin=0.09 lr=3e-009 vo=9.5
.step iin=0.06 lr=3e-009 vo=9.5
.step iin=0.03 lr=3e-009 vo=9.5
.step iin=0.25 lr=1.6e-009 vo=10
.step iin=0.23 lr=1.6e-009 vo=10
.step iin=0.21 lr=1.6e-009 vo=10
.step iin=0.18 lr=1.6e-009 vo=10
.step iin=0.15 lr=1.6e-009 vo=10
.step iin=0.12 lr=1.6e-009 vo=10
.step iin=0.09 lr=1.6e-009 vo=10
.step iin=0.06 lr=1.6e-009 vo=10
.step iin=0.03 lr=1.6e-009 vo=10
.step iin=0.25 lr=1.9e-009 vo=10
.step iin=0.23 lr=1.9e-009 vo=10
.step iin=0.21 lr=1.9e-009 vo=10
.step iin=0.18 lr=1.9e-009 vo=10
.step iin=0.15 lr=1.9e-009 vo=10
.step iin=0.12 lr=1.9e-009 vo=10
.step iin=0.09 lr=1.9e-009 vo=10
.step iin=0.06 lr=1.9e-009 vo=10
.step iin=0.03 lr=1.9e-009 vo=10
.step iin=0.25 lr=2.1e-009 vo=10
.step iin=0.23 lr=2.1e-009 vo=10
.step iin=0.21 lr=2.1e-009 vo=10
.step iin=0.18 lr=2.1e-009 vo=10
.step iin=0.15 lr=2.1e-009 vo=10
.step iin=0.12 lr=2.1e-009 vo=10
.step iin=0.09 lr=2.1e-009 vo=10
.step iin=0.06 lr=2.1e-009 vo=10
.step iin=0.03 lr=2.1e-009 vo=10
.step iin=0.25 lr=2.2e-009 vo=10
.step iin=0.23 lr=2.2e-009 vo=10
.step iin=0.21 lr=2.2e-009 vo=10
.step iin=0.18 lr=2.2e-009 vo=10
.step iin=0.15 lr=2.2e-009 vo=10
.step iin=0.12 lr=2.2e-009 vo=10
.step iin=0.09 lr=2.2e-009 vo=10
.step iin=0.06 lr=2.2e-009 vo=10
.step iin=0.03 lr=2.2e-009 vo=10
.step iin=0.25 lr=2.3e-009 vo=10
.step iin=0.23 lr=2.3e-009 vo=10
.step iin=0.21 lr=2.3e-009 vo=10
.step iin=0.18 lr=2.3e-009 vo=10
.step iin=0.15 lr=2.3e-009 vo=10
.step iin=0.12 lr=2.3e-009 vo=10
.step iin=0.09 lr=2.3e-009 vo=10
.step iin=0.06 lr=2.3e-009 vo=10
.step iin=0.03 lr=2.3e-009 vo=10
.step iin=0.25 lr=2.4e-009 vo=10
.step iin=0.23 lr=2.4e-009 vo=10
.step iin=0.21 lr=2.4e-009 vo=10
.step iin=0.18 lr=2.4e-009 vo=10
.step iin=0.15 lr=2.4e-009 vo=10
.step iin=0.12 lr=2.4e-009 vo=10
.step iin=0.09 lr=2.4e-009 vo=10
.step iin=0.06 lr=2.4e-009 vo=10
.step iin=0.03 lr=2.4e-009 vo=10
.step iin=0.25 lr=2.7e-009 vo=10
.step iin=0.23 lr=2.7e-009 vo=10
.step iin=0.21 lr=2.7e-009 vo=10
.step iin=0.18 lr=2.7e-009 vo=10
.step iin=0.15 lr=2.7e-009 vo=10
.step iin=0.12 lr=2.7e-009 vo=10
.step iin=0.09 lr=2.7e-009 vo=10
.step iin=0.06 lr=2.7e-009 vo=10
.step iin=0.03 lr=2.7e-009 vo=10
.step iin=0.25 lr=3e-009 vo=10
.step iin=0.23 lr=3e-009 vo=10
.step iin=0.21 lr=3e-009 vo=10
.step iin=0.18 lr=3e-009 vo=10
.step iin=0.15 lr=3e-009 vo=10
.step iin=0.12 lr=3e-009 vo=10
.step iin=0.09 lr=3e-009 vo=10
.step iin=0.06 lr=3e-009 vo=10
.step iin=0.03 lr=3e-009 vo=10
.step iin=0.25 lr=1.6e-009 vo=10.5
.step iin=0.23 lr=1.6e-009 vo=10.5
.step iin=0.21 lr=1.6e-009 vo=10.5
.step iin=0.18 lr=1.6e-009 vo=10.5
.step iin=0.15 lr=1.6e-009 vo=10.5
.step iin=0.12 lr=1.6e-009 vo=10.5
.step iin=0.09 lr=1.6e-009 vo=10.5
.step iin=0.06 lr=1.6e-009 vo=10.5
.step iin=0.03 lr=1.6e-009 vo=10.5
.step iin=0.25 lr=1.9e-009 vo=10.5
.step iin=0.23 lr=1.9e-009 vo=10.5
.step iin=0.21 lr=1.9e-009 vo=10.5
.step iin=0.18 lr=1.9e-009 vo=10.5
.step iin=0.15 lr=1.9e-009 vo=10.5
.step iin=0.12 lr=1.9e-009 vo=10.5
.step iin=0.09 lr=1.9e-009 vo=10.5
.step iin=0.06 lr=1.9e-009 vo=10.5
.step iin=0.03 lr=1.9e-009 vo=10.5
.step iin=0.25 lr=2.1e-009 vo=10.5
.step iin=0.23 lr=2.1e-009 vo=10.5
.step iin=0.21 lr=2.1e-009 vo=10.5
.step iin=0.18 lr=2.1e-009 vo=10.5
.step iin=0.15 lr=2.1e-009 vo=10.5
.step iin=0.12 lr=2.1e-009 vo=10.5
.step iin=0.09 lr=2.1e-009 vo=10.5
.step iin=0.06 lr=2.1e-009 vo=10.5
.step iin=0.03 lr=2.1e-009 vo=10.5
.step iin=0.25 lr=2.2e-009 vo=10.5
.step iin=0.23 lr=2.2e-009 vo=10.5
.step iin=0.21 lr=2.2e-009 vo=10.5
.step iin=0.18 lr=2.2e-009 vo=10.5
.step iin=0.15 lr=2.2e-009 vo=10.5
.step iin=0.12 lr=2.2e-009 vo=10.5
.step iin=0.09 lr=2.2e-009 vo=10.5
.step iin=0.06 lr=2.2e-009 vo=10.5
.step iin=0.03 lr=2.2e-009 vo=10.5
.step iin=0.25 lr=2.3e-009 vo=10.5
.step iin=0.23 lr=2.3e-009 vo=10.5
.step iin=0.21 lr=2.3e-009 vo=10.5
.step iin=0.18 lr=2.3e-009 vo=10.5
.step iin=0.15 lr=2.3e-009 vo=10.5
.step iin=0.12 lr=2.3e-009 vo=10.5
.step iin=0.09 lr=2.3e-009 vo=10.5
.step iin=0.06 lr=2.3e-009 vo=10.5
.step iin=0.03 lr=2.3e-009 vo=10.5
.step iin=0.25 lr=2.4e-009 vo=10.5
.step iin=0.23 lr=2.4e-009 vo=10.5
.step iin=0.21 lr=2.4e-009 vo=10.5
.step iin=0.18 lr=2.4e-009 vo=10.5
.step iin=0.15 lr=2.4e-009 vo=10.5
.step iin=0.12 lr=2.4e-009 vo=10.5
.step iin=0.09 lr=2.4e-009 vo=10.5
.step iin=0.06 lr=2.4e-009 vo=10.5
.step iin=0.03 lr=2.4e-009 vo=10.5
.step iin=0.25 lr=2.7e-009 vo=10.5
.step iin=0.23 lr=2.7e-009 vo=10.5
.step iin=0.21 lr=2.7e-009 vo=10.5
.step iin=0.18 lr=2.7e-009 vo=10.5
.step iin=0.15 lr=2.7e-009 vo=10.5
.step iin=0.12 lr=2.7e-009 vo=10.5
.step iin=0.09 lr=2.7e-009 vo=10.5
.step iin=0.06 lr=2.7e-009 vo=10.5
.step iin=0.03 lr=2.7e-009 vo=10.5
.step iin=0.25 lr=3e-009 vo=10.5
.step iin=0.23 lr=3e-009 vo=10.5
.step iin=0.21 lr=3e-009 vo=10.5
.step iin=0.18 lr=3e-009 vo=10.5
.step iin=0.15 lr=3e-009 vo=10.5
.step iin=0.12 lr=3e-009 vo=10.5
.step iin=0.09 lr=3e-009 vo=10.5
.step iin=0.06 lr=3e-009 vo=10.5
.step iin=0.03 lr=3e-009 vo=10.5
.step iin=0.25 lr=1.6e-009 vo=11
.step iin=0.23 lr=1.6e-009 vo=11
.step iin=0.21 lr=1.6e-009 vo=11
.step iin=0.18 lr=1.6e-009 vo=11
.step iin=0.15 lr=1.6e-009 vo=11
.step iin=0.12 lr=1.6e-009 vo=11
.step iin=0.09 lr=1.6e-009 vo=11
.step iin=0.06 lr=1.6e-009 vo=11
.step iin=0.03 lr=1.6e-009 vo=11
.step iin=0.25 lr=1.9e-009 vo=11
.step iin=0.23 lr=1.9e-009 vo=11
.step iin=0.21 lr=1.9e-009 vo=11
.step iin=0.18 lr=1.9e-009 vo=11
.step iin=0.15 lr=1.9e-009 vo=11
.step iin=0.12 lr=1.9e-009 vo=11
.step iin=0.09 lr=1.9e-009 vo=11
.step iin=0.06 lr=1.9e-009 vo=11
.step iin=0.03 lr=1.9e-009 vo=11
.step iin=0.25 lr=2.1e-009 vo=11
.step iin=0.23 lr=2.1e-009 vo=11
.step iin=0.21 lr=2.1e-009 vo=11
.step iin=0.18 lr=2.1e-009 vo=11
.step iin=0.15 lr=2.1e-009 vo=11
.step iin=0.12 lr=2.1e-009 vo=11
.step iin=0.09 lr=2.1e-009 vo=11
.step iin=0.06 lr=2.1e-009 vo=11
.step iin=0.03 lr=2.1e-009 vo=11
.step iin=0.25 lr=2.2e-009 vo=11
.step iin=0.23 lr=2.2e-009 vo=11
.step iin=0.21 lr=2.2e-009 vo=11
.step iin=0.18 lr=2.2e-009 vo=11
.step iin=0.15 lr=2.2e-009 vo=11
.step iin=0.12 lr=2.2e-009 vo=11
.step iin=0.09 lr=2.2e-009 vo=11
.step iin=0.06 lr=2.2e-009 vo=11
.step iin=0.03 lr=2.2e-009 vo=11
.step iin=0.25 lr=2.3e-009 vo=11
.step iin=0.23 lr=2.3e-009 vo=11
.step iin=0.21 lr=2.3e-009 vo=11
.step iin=0.18 lr=2.3e-009 vo=11
.step iin=0.15 lr=2.3e-009 vo=11
.step iin=0.12 lr=2.3e-009 vo=11
.step iin=0.09 lr=2.3e-009 vo=11
.step iin=0.06 lr=2.3e-009 vo=11
.step iin=0.03 lr=2.3e-009 vo=11
.step iin=0.25 lr=2.4e-009 vo=11
.step iin=0.23 lr=2.4e-009 vo=11
.step iin=0.21 lr=2.4e-009 vo=11
.step iin=0.18 lr=2.4e-009 vo=11
.step iin=0.15 lr=2.4e-009 vo=11
.step iin=0.12 lr=2.4e-009 vo=11
.step iin=0.09 lr=2.4e-009 vo=11
.step iin=0.06 lr=2.4e-009 vo=11
.step iin=0.03 lr=2.4e-009 vo=11
.step iin=0.25 lr=2.7e-009 vo=11
.step iin=0.23 lr=2.7e-009 vo=11
.step iin=0.21 lr=2.7e-009 vo=11
.step iin=0.18 lr=2.7e-009 vo=11
.step iin=0.15 lr=2.7e-009 vo=11
.step iin=0.12 lr=2.7e-009 vo=11
.step iin=0.09 lr=2.7e-009 vo=11
.step iin=0.06 lr=2.7e-009 vo=11
.step iin=0.03 lr=2.7e-009 vo=11
.step iin=0.25 lr=3e-009 vo=11
.step iin=0.23 lr=3e-009 vo=11
.step iin=0.21 lr=3e-009 vo=11
.step iin=0.18 lr=3e-009 vo=11
.step iin=0.15 lr=3e-009 vo=11
.step iin=0.12 lr=3e-009 vo=11
.step iin=0.09 lr=3e-009 vo=11
.step iin=0.06 lr=3e-009 vo=11
.step iin=0.03 lr=3e-009 vo=11


Measurement: pin
  step	AVG(v(rin1)*i(rrin1))	FROM	TO
     1	0.651509	0	1.2245e-009
     2	0.59608	0	1.2245e-009
     3	0.541308	0	1.2245e-009
     4	0.460269	0	1.2245e-009
     5	0.380234	0	1.2245e-009
     6	0.300266	0	1.2245e-009
     7	0.218016	0	1.2245e-009
     8	0.12251	0	1.2245e-009
     9	0.005008	0	1.2245e-009
    10	0.675085	0	1.2245e-009
    11	0.615545	0	1.2245e-009
    12	0.557072	0	1.2245e-009
    13	0.471403	0	1.2245e-009
    14	0.388192	0	1.2245e-009
    15	0.307301	0	1.2245e-009
    16	0.228475	0	1.2245e-009
    17	0.151117	0	1.2245e-009
    18	0.0715835	0	1.2245e-009
    19	0.682685	0	1.2245e-009
    20	0.620452	0	1.2245e-009
    21	0.559453	0	1.2245e-009
    22	0.470384	0	1.2245e-009
    23	0.384286	0	1.2245e-009
    24	0.301124	0	1.2245e-009
    25	0.220944	0	1.2245e-009
    26	0.144016	0	1.2245e-009
    27	0.0701647	0	1.2245e-009
    28	0.684955	0	1.2245e-009
    29	0.621423	0	1.2245e-009
    30	0.559197	0	1.2245e-009
    31	0.468443	0	1.2245e-009
    32	0.38086	0	1.2245e-009
    33	0.296396	0	1.2245e-009
    34	0.21517	0	1.2245e-009
    35	0.137542	0	1.2245e-009
    36	0.0630792	0	1.2245e-009
    37	0.686462	0	1.2245e-009
    38	0.621666	0	1.2245e-009
    39	0.558253	0	1.2245e-009
    40	0.465851	0	1.2245e-009
    41	0.376775	0	1.2245e-009
    42	0.290966	0	1.2245e-009
    43	0.208558	0	1.2245e-009
    44	0.129879	0	1.2245e-009
    45	0.0533212	0	1.2245e-009
    46	0.687342	0	1.2245e-009
    47	0.621329	0	1.2245e-009
    48	0.556765	0	1.2245e-009
    49	0.462761	0	1.2245e-009
    50	0.37221	0	1.2245e-009
    51	0.285035	0	1.2245e-009
    52	0.201366	0	1.2245e-009
    53	0.12137	0	1.2245e-009
    54	0.0412156	0	1.2245e-009
    55	0.687311	0	1.2245e-009
    56	0.617904	0	1.2245e-009
    57	0.55012	0	1.2245e-009
    58	0.451603	0	1.2245e-009
    59	0.356833	0	1.2245e-009
    60	0.265592	0	1.2245e-009
    61	0.177978	0	1.2245e-009
    62	0.092909	0	1.2245e-009
    63	0.0272531	0	1.2245e-009
    64	0.684728	0	1.2245e-009
    65	0.612311	0	1.2245e-009
    66	0.541673	0	1.2245e-009
    67	0.439131	0	1.2245e-009
    68	0.340503	0	1.2245e-009
    69	0.245428	0	1.2245e-009
    70	0.153965	0	1.2245e-009
    71	0.0623139	0	1.2245e-009
    72	0.01955	0	1.2245e-009
    73	0.704322	0	1.2245e-009
    74	0.644759	0	1.2245e-009
    75	0.585687	0	1.2245e-009
    76	0.497773	0	1.2245e-009
    77	0.409978	0	1.2245e-009
    78	0.320453	0	1.2245e-009
    79	0.223843	0	1.2245e-009
    80	0.0648269	0	1.2245e-009
    81	0.00380377	0	1.2245e-009
    82	0.731865	0	1.2245e-009
    83	0.668473	0	1.2245e-009
    84	0.606104	0	1.2245e-009
    85	0.514473	0	1.2245e-009
    86	0.425067	0	1.2245e-009
    87	0.337578	0	1.2245e-009
    88	0.251352	0	1.2245e-009
    89	0.164386	0	1.2245e-009
    90	0.0132338	0	1.2245e-009
    91	0.739975	0	1.2245e-009
    92	0.673925	0	1.2245e-009
    93	0.609095	0	1.2245e-009
    94	0.514247	0	1.2245e-009
    95	0.422303	0	1.2245e-009
    96	0.333186	0	1.2245e-009
    97	0.246804	0	1.2245e-009
    98	0.163116	0	1.2245e-009
    99	0.0808932	0	1.2245e-009
   100	0.742137	0	1.2245e-009
   101	0.674775	0	1.2245e-009
   102	0.608732	0	1.2245e-009
   103	0.512236	0	1.2245e-009
   104	0.41889	0	1.2245e-009
   105	0.32864	0	1.2245e-009
   106	0.241532	0	1.2245e-009
   107	0.157849	0	1.2245e-009
   108	0.0773459	0	1.2245e-009
   109	0.743361	0	1.2245e-009
   110	0.674722	0	1.2245e-009
   111	0.607475	0	1.2245e-009
   112	0.50935	0	1.2245e-009
   113	0.414571	0	1.2245e-009
   114	0.323079	0	1.2245e-009
   115	0.235006	0	1.2245e-009
   116	0.150754	0	1.2245e-009
   117	0.069912	0	1.2245e-009
   118	0.743821	0	1.2245e-009
   119	0.673946	0	1.2245e-009
   120	0.605535	0	1.2245e-009
   121	0.505803	0	1.2245e-009
   122	0.409574	0	1.2245e-009
   123	0.316784	0	1.2245e-009
   124	0.22759	0	1.2245e-009
   125	0.142367	0	1.2245e-009
   126	0.0595814	0	1.2245e-009
   127	0.741984	0	1.2245e-009
   128	0.668639	0	1.2245e-009
   129	0.596947	0	1.2245e-009
   130	0.492638	0	1.2245e-009
   131	0.392165	0	1.2245e-009
   132	0.295349	0	1.2245e-009
   133	0.202344	0	1.2245e-009
   134	0.112626	0	1.2245e-009
   135	0.0335578	0	1.2245e-009
   136	0.737169	0	1.2245e-009
   137	0.660726	0	1.2245e-009
   138	0.586105	0	1.2245e-009
   139	0.477658	0	1.2245e-009
   140	0.373225	0	1.2245e-009
   141	0.272477	0	1.2245e-009
   142	0.175542	0	1.2245e-009
   143	0.0795627	0	1.2245e-009
   144	0.0242424	0	1.2245e-009
   145	0.756581	0	1.2245e-009
   146	0.692521	0	1.2245e-009
   147	0.628721	0	1.2245e-009
   148	0.533024	0	1.2245e-009
   149	0.435987	0	1.2245e-009
   150	0.334037	0	1.2245e-009
   151	0.213538	0	1.2245e-009
   152	0.0147667	0	1.2245e-009
   153	0.00305253	0	1.2245e-009
   154	0.78971	0	1.2245e-009
   155	0.722297	0	1.2245e-009
   156	0.65584	0	1.2245e-009
   157	0.557882	0	1.2245e-009
   158	0.461772	0	1.2245e-009
   159	0.366895	0	1.2245e-009
   160	0.271849	0	1.2245e-009
   161	0.171497	0	1.2245e-009
   162	0.00829613	0	1.2245e-009
   163	0.798842	0	1.2245e-009
   164	0.72886	0	1.2245e-009
   165	0.660083	0	1.2245e-009
   166	0.559224	0	1.2245e-009
   167	0.46113	0	1.2245e-009
   168	0.365618	0	1.2245e-009
   169	0.272347	0	1.2245e-009
   170	0.180523	0	1.2245e-009
   171	0.0850621	0	1.2245e-009
   172	0.80105	0	1.2245e-009
   173	0.729779	0	1.2245e-009
   174	0.659806	0	1.2245e-009
   175	0.557388	0	1.2245e-009
   176	0.45804	0	1.2245e-009
   177	0.361672	0	1.2245e-009
   178	0.268178	0	1.2245e-009
   179	0.177491	0	1.2245e-009
   180	0.088135	0	1.2245e-009
   181	0.802104	0	1.2245e-009
   182	0.729548	0	1.2245e-009
   183	0.658396	0	1.2245e-009
   184	0.554393	0	1.2245e-009
   185	0.453713	0	1.2245e-009
   186	0.356291	0	1.2245e-009
   187	0.262176	0	1.2245e-009
   188	0.171667	0	1.2245e-009
   189	0.0844446	0	1.2245e-009
   190	0.802227	0	1.2245e-009
   191	0.728424	0	1.2245e-009
   192	0.656105	0	1.2245e-009
   193	0.550519	0	1.2245e-009
   194	0.448461	0	1.2245e-009
   195	0.349859	0	1.2245e-009
   196	0.254859	0	1.2245e-009
   197	0.163898	0	1.2245e-009
   198	0.0765674	0	1.2245e-009
   199	0.798684	0	1.2245e-009
   200	0.721358	0	1.2245e-009
   201	0.645721	0	1.2245e-009
   202	0.535549	0	1.2245e-009
   203	0.429296	0	1.2245e-009
   204	0.326819	0	1.2245e-009
   205	0.228316	0	1.2245e-009
   206	0.133727	0	1.2245e-009
   207	0.0407267	0	1.2245e-009
   208	0.791596	0	1.2245e-009
   209	0.711106	0	1.2245e-009
   210	0.63247	0	1.2245e-009
   211	0.518081	0	1.2245e-009
   212	0.407808	0	1.2245e-009
   213	0.301354	0	1.2245e-009
   214	0.198922	0	1.2245e-009
   215	0.098497	0	1.2245e-009
   216	0.0297065	0	1.2245e-009
   217	0.807496	0	1.2245e-009
   218	0.738478	0	1.2245e-009
   219	0.669356	0	1.2245e-009
   220	0.564644	0	1.2245e-009
   221	0.45615	0	1.2245e-009
   222	0.336546	0	1.2245e-009
   223	0.152579	0	1.2245e-009
   224	0.0115155	0	1.2245e-009
   225	0.00253404	0	1.2245e-009
   226	0.848231	0	1.2245e-009
   227	0.776598	0	1.2245e-009
   228	0.705821	0	1.2245e-009
   229	0.601076	0	1.2245e-009
   230	0.49759	0	1.2245e-009
   231	0.394238	0	1.2245e-009
   232	0.288189	0	1.2245e-009
   233	0.166463	0	1.2245e-009
   234	0.00614085	0	1.2245e-009
   235	0.859022	0	1.2245e-009
   236	0.784985	0	1.2245e-009
   237	0.712105	0	1.2245e-009
   238	0.604964	0	1.2245e-009
   239	0.50034	0	1.2245e-009
   240	0.397853	0	1.2245e-009
   241	0.29674	0	1.2245e-009
   242	0.194652	0	1.2245e-009
   243	0.0141218	0	1.2245e-009
   244	0.861487	0	1.2245e-009
   245	0.786195	0	1.2245e-009
   246	0.712179	0	1.2245e-009
   247	0.603614	0	1.2245e-009
   248	0.497971	0	1.2245e-009
   249	0.395048	0	1.2245e-009
   250	0.29448	0	1.2245e-009
   251	0.195419	0	1.2245e-009
   252	0.0922604	0	1.2245e-009
   253	0.862525	0	1.2245e-009
   254	0.785975	0	1.2245e-009
   255	0.710809	0	1.2245e-009
   256	0.600749	0	1.2245e-009
   257	0.493936	0	1.2245e-009
   258	0.390248	0	1.2245e-009
   259	0.289583	0	1.2245e-009
   260	0.191869	0	1.2245e-009
   261	0.0954234	0	1.2245e-009
   262	0.862421	0	1.2245e-009
   263	0.784628	0	1.2245e-009
   264	0.708315	0	1.2245e-009
   265	0.596732	0	1.2245e-009
   266	0.488648	0	1.2245e-009
   267	0.383986	0	1.2245e-009
   268	0.282797	0	1.2245e-009
   269	0.18541	0	1.2245e-009
   270	0.0914385	0	1.2245e-009
   271	0.857339	0	1.2245e-009
   272	0.775994	0	1.2245e-009
   273	0.696364	0	1.2245e-009
   274	0.580241	0	1.2245e-009
   275	0.468114	0	1.2245e-009
   276	0.359858	0	1.2245e-009
   277	0.2557	0	1.2245e-009
   278	0.155939	0	1.2245e-009
   279	0.0565593	0	1.2245e-009
   280	0.847984	0	1.2245e-009
   281	0.763416	0	1.2245e-009
   282	0.680739	0	1.2245e-009
   283	0.560357	0	1.2245e-009
   284	0.444197	0	1.2245e-009
   285	0.331996	0	1.2245e-009
   286	0.22402	0	1.2245e-009
   287	0.118994	0	1.2245e-009
   288	0.0359156	0	1.2245e-009
   289	0.856125	0	1.2245e-009
   290	0.781529	0	1.2245e-009
   291	0.706313	0	1.2245e-009
   292	0.590741	0	1.2245e-009
   293	0.467197	0	1.2245e-009
   294	0.318487	0	1.2245e-009
   295	0.0261592	0	1.2245e-009
   296	0.00952604	0	1.2245e-009
   297	0.00216138	0	1.2245e-009
   298	0.906999	0	1.2245e-009
   299	0.830899	0	1.2245e-009
   300	0.755502	0	1.2245e-009
   301	0.643381	0	1.2245e-009
   302	0.531636	0	1.2245e-009
   303	0.418265	0	1.2245e-009
   304	0.297635	0	1.2245e-009
   305	0.127416	0	1.2245e-009
   306	0.00486491	0	1.2245e-009
   307	0.920236	0	1.2245e-009
   308	0.841983	0	1.2245e-009
   309	0.764827	0	1.2245e-009
   310	0.651061	0	1.2245e-009
   311	0.539411	0	1.2245e-009
   312	0.429211	0	1.2245e-009
   313	0.318906	0	1.2245e-009
   314	0.202978	0	1.2245e-009
   315	0.00942019	0	1.2245e-009
   316	0.923216	0	1.2245e-009
   317	0.843781	0	1.2245e-009
   318	0.765579	0	1.2245e-009
   319	0.650593	0	1.2245e-009
   320	0.538277	0	1.2245e-009
   321	0.428233	0	1.2245e-009
   322	0.319668	0	1.2245e-009
   323	0.210145	0	1.2245e-009
   324	0.0149077	0	1.2245e-009
   325	0.924434	0	1.2245e-009
   326	0.843784	0	1.2245e-009
   327	0.764493	0	1.2245e-009
   328	0.648155	0	1.2245e-009
   329	0.534912	0	1.2245e-009
   330	0.424534	0	1.2245e-009
   331	0.316648	0	1.2245e-009
   332	0.210373	0	1.2245e-009
   333	0.0997854	0	1.2245e-009
   334	0.924246	0	1.2245e-009
   335	0.842386	0	1.2245e-009
   336	0.761983	0	1.2245e-009
   337	0.644221	0	1.2245e-009
   338	0.529882	0	1.2245e-009
   339	0.418824	0	1.2245e-009
   340	0.310949	0	1.2245e-009
   341	0.206197	0	1.2245e-009
   342	0.102745	0	1.2245e-009
   343	0.917867	0	1.2245e-009
   344	0.832453	0	1.2245e-009
   345	0.748772	0	1.2245e-009
   346	0.626604	0	1.2245e-009
   347	0.508478	0	1.2245e-009
   348	0.394294	0	1.2245e-009
   349	0.284265	0	1.2245e-009
   350	0.178933	0	1.2245e-009
   351	0.0766036	0	1.2245e-009
   352	0.906299	0	1.2245e-009
   353	0.817623	0	1.2245e-009
   354	0.730865	0	1.2245e-009
   355	0.604434	0	1.2245e-009
   356	0.482327	0	1.2245e-009
   357	0.364309	0	1.2245e-009
   358	0.25071	0	1.2245e-009
   359	0.140894	0	1.2245e-009
   360	0.042808	0	1.2245e-009
   361	0.901349	0	1.2245e-009
   362	0.820363	0	1.2245e-009
   363	0.737947	0	1.2245e-009
   364	0.608744	0	1.2245e-009
   365	0.463541	0	1.2245e-009
   366	0.240968	0	1.2245e-009
   367	0.0207618	0	1.2245e-009
   368	0.00814743	0	1.2245e-009
   369	0.00187776	0	1.2245e-009
   370	0.965512	0	1.2245e-009
   371	0.884652	0	1.2245e-009
   372	0.80426	0	1.2245e-009
   373	0.684002	0	1.2245e-009
   374	0.56278	0	1.2245e-009
   375	0.437116	0	1.2245e-009
   376	0.295243	0	1.2245e-009
   377	0.0201078	0	1.2245e-009
   378	0.0040099	0	1.2245e-009
   379	0.982159	0	1.2245e-009
   380	0.899519	0	1.2245e-009
   381	0.817855	0	1.2245e-009
   382	0.697035	0	1.2245e-009
   383	0.577752	0	1.2245e-009
   384	0.458838	0	1.2245e-009
   385	0.337372	0	1.2245e-009
   386	0.200703	0	1.2245e-009
   387	0.0071593	0	1.2245e-009
   388	0.98598	0	1.2245e-009
   389	0.902252	0	1.2245e-009
   390	0.819688	0	1.2245e-009
   391	0.697945	0	1.2245e-009
   392	0.578487	0	1.2245e-009
   393	0.46061	0	1.2245e-009
   394	0.342747	0	1.2245e-009
   395	0.219363	0	1.2245e-009
   396	0.0101183	0	1.2245e-009
   397	0.987621	0	1.2245e-009
   398	0.902748	0	1.2245e-009
   399	0.819188	0	1.2245e-009
   400	0.696314	0	1.2245e-009
   401	0.576272	0	1.2245e-009
   402	0.458654	0	1.2245e-009
   403	0.342646	0	1.2245e-009
   404	0.225797	0	1.2245e-009
   405	0.0159104	0	1.2245e-009
   406	0.987539	0	1.2245e-009
   407	0.9015	0	1.2245e-009
   408	0.816889	0	1.2245e-009
   409	0.692744	0	1.2245e-009
   410	0.571859	0	1.2245e-009
   411	0.45399	0	1.2245e-009
   412	0.338775	0	1.2245e-009
   413	0.225331	0	1.2245e-009
   414	0.107604	0	1.2245e-009
   415	0.980173	0	1.2245e-009
   416	0.890628	0	1.2245e-009
   417	0.802834	0	1.2245e-009
   418	0.674503	0	1.2245e-009
   419	0.550224	0	1.2245e-009
   420	0.429916	0	1.2245e-009
   421	0.313738	0	1.2245e-009
   422	0.20232	0	1.2245e-009
   423	0.0950651	0	1.2245e-009
   424	0.966487	0	1.2245e-009
   425	0.873663	0	1.2245e-009
   426	0.782788	0	1.2245e-009
   427	0.650242	0	1.2245e-009
   428	0.522108	0	1.2245e-009
   429	0.398198	0	1.2245e-009
   430	0.278848	0	1.2245e-009
   431	0.163999	0	1.2245e-009
   432	0.0505127	0	1.2245e-009
   433	0.941765	0	1.2245e-009
   434	0.853259	0	1.2245e-009
   435	0.761966	0	1.2245e-009
   436	0.614626	0	1.2245e-009
   437	0.433048	0	1.2245e-009
   438	0.037784	0	1.2245e-009
   439	0.0175552	0	1.2245e-009
   440	0.00713428	0	1.2245e-009
   441	0.00166201	0	1.2245e-009
   442	1.02321	0	1.2245e-009
   443	0.937208	0	1.2245e-009
   444	0.851356	0	1.2245e-009
   445	0.721971	0	1.2245e-009
   446	0.589608	0	1.2245e-009
   447	0.448049	0	1.2245e-009
   448	0.268826	0	1.2245e-009
   449	0.0158125	0	1.2245e-009
   450	0.00340288	0	1.2245e-009
   451	1.04444	0	1.2245e-009
   452	0.957188	0	1.2245e-009
   453	0.870751	0	1.2245e-009
   454	0.74234	0	1.2245e-009
   455	0.614637	0	1.2245e-009
   456	0.485644	0	1.2245e-009
   457	0.349989	0	1.2245e-009
   458	0.174463	0	1.2245e-009
   459	0.00576451	0	1.2245e-009
   460	1.04947	0	1.2245e-009
   461	0.961282	0	1.2245e-009
   462	0.874138	0	1.2245e-009
   463	0.74524	0	1.2245e-009
   464	0.61805	0	1.2245e-009
   465	0.491394	0	1.2245e-009
   466	0.362386	0	1.2245e-009
   467	0.218873	0	1.2245e-009
   468	0.00775775	0	1.2245e-009
   469	1.05184	0	1.2245e-009
   470	0.962605	0	1.2245e-009
   471	0.874602	0	1.2245e-009
   472	0.744869	0	1.2245e-009
   473	0.617581	0	1.2245e-009
   474	0.492042	0	1.2245e-009
   475	0.36668	0	1.2245e-009
   476	0.23606	0	1.2245e-009
   477	0.0109213	0	1.2245e-009
   478	1.05209	0	1.2245e-009
   479	0.961757	0	1.2245e-009
   480	0.872814	0	1.2245e-009
   481	0.742016	0	1.2245e-009
   482	0.614233	0	1.2245e-009
   483	0.489031	0	1.2245e-009
   484	0.365608	0	1.2245e-009
   485	0.241543	0	1.2245e-009
   486	0.0171514	0	1.2245e-009
   487	1.04414	0	1.2245e-009
   488	0.950406	0	1.2245e-009
   489	0.858417	0	1.2245e-009
   490	0.723785	0	1.2245e-009
   491	0.593176	0	1.2245e-009
   492	0.466488	0	1.2245e-009
   493	0.343802	0	1.2245e-009
   494	0.225631	0	1.2245e-009
   495	0.111413	0	1.2245e-009
   496	1.02849	0	1.2245e-009
   497	0.931482	0	1.2245e-009
   498	0.836446	0	1.2245e-009
   499	0.697699	0	1.2245e-009
   500	0.563441	0	1.2245e-009
   501	0.433519	0	1.2245e-009
   502	0.308273	0	1.2245e-009
   503	0.188068	0	1.2245e-009
   504	0.0677963	0	1.2245e-009
   505	0.960378	0	1.2245e-009
   506	0.869492	0	1.2245e-009
   507	0.77522	0	1.2245e-009
   508	0.60122	0	1.2245e-009
   509	0.323101	0	1.2245e-009
   510	0.0306178	0	1.2245e-009
   511	0.0153223	0	1.2245e-009
   512	0.0063512	0	1.2245e-009
   513	0.00148908	0	1.2245e-009
   514	1.07721	0	1.2245e-009
   515	0.986383	0	1.2245e-009
   516	0.895554	0	1.2245e-009
   517	0.75611	0	1.2245e-009
   518	0.610177	0	1.2245e-009
   519	0.446469	0	1.2245e-009
   520	0.0410612	0	1.2245e-009
   521	0.0131951	0	1.2245e-009
   522	0.0029455	0	1.2245e-009
   523	1.11095	0	1.2245e-009
   524	1.01686	0	1.2245e-009
   525	0.923307	0	1.2245e-009
   526	0.786333	0	1.2245e-009
   527	0.649174	0	1.2245e-009
   528	0.508197	0	1.2245e-009
   529	0.353238	0	1.2245e-009
   530	0.0251178	0	1.2245e-009
   531	0.00481149	0	1.2245e-009
   532	1.11974	0	1.2245e-009
   533	1.02367	0	1.2245e-009
   534	0.928541	0	1.2245e-009
   535	0.791977	0	1.2245e-009
   536	0.656326	0	1.2245e-009
   537	0.519615	0	1.2245e-009
   538	0.376698	0	1.2245e-009
   539	0.198237	0	1.2245e-009
   540	0.00628637	0	1.2245e-009
   541	1.12446	0	1.2245e-009
   542	1.02629	0	1.2245e-009
   543	0.930415	0	1.2245e-009
   544	0.79343	0	1.2245e-009
   545	0.658342	0	1.2245e-009
   546	0.523986	0	1.2245e-009
   547	0.387542	0	1.2245e-009
   548	0.237516	0	1.2245e-009
   549	0.00843112	0	1.2245e-009
   550	1.12584	0	1.2245e-009
   551	1.02554	0	1.2245e-009
   552	0.929473	0	1.2245e-009
   553	0.791723	0	1.2245e-009
   554	0.656604	0	1.2245e-009
   555	0.523419	0	1.2245e-009
   556	0.390611	0	1.2245e-009
   557	0.252967	0	1.2245e-009
   558	0.01184	0	1.2245e-009
   559	1.11547	0	1.2245e-009
   560	1.01165	0	1.2245e-009
   561	0.915368	0	1.2245e-009
   562	0.774266	0	1.2245e-009
   563	0.637113	0	1.2245e-009
   564	0.503742	0	1.2245e-009
   565	0.374091	0	1.2245e-009
   566	0.248292	0	1.2245e-009
   567	0.124482	0	1.2245e-009
   568	1.09227	0	1.2245e-009
   569	0.990996	0	1.2245e-009
   570	0.89175	0	1.2245e-009
   571	0.74671	0	1.2245e-009
   572	0.606207	0	1.2245e-009
   573	0.470123	0	1.2245e-009
   574	0.338772	0	1.2245e-009
   575	0.212832	0	1.2245e-009
   576	0.0898226	0	1.2245e-009

Measurement: pout
  step	AVG(v(load)*i(rlf1))	FROM	TO
     1	0.493432	0	1.2245e-009
     2	0.450059	0	1.2245e-009
     3	0.406905	0	1.2245e-009
     4	0.342518	0	1.2245e-009
     5	0.278293	0	1.2245e-009
     6	0.213518	0	1.2245e-009
     7	0.146284	0	1.2245e-009
     8	0.0676929	0	1.2245e-009
     9	-9.85966e-006	0	1.2245e-009
    10	0.514152	0	1.2245e-009
    11	0.467684	0	1.2245e-009
    12	0.4217	0	1.2245e-009
    13	0.353721	0	1.2245e-009
    14	0.28701	0	1.2245e-009
    15	0.221498	0	1.2245e-009
    16	0.15703	0	1.2245e-009
    17	0.0933221	0	1.2245e-009
    18	0.0275025	0	1.2245e-009
    19	0.521274	0	1.2245e-009
    20	0.47273	0	1.2245e-009
    21	0.424779	0	1.2245e-009
    22	0.354101	0	1.2245e-009
    23	0.28505	0	1.2245e-009
    24	0.217635	0	1.2245e-009
    25	0.151961	0	1.2245e-009
    26	0.0884979	0	1.2245e-009
    27	0.0272463	0	1.2245e-009
    28	0.523563	0	1.2245e-009
    29	0.474012	0	1.2245e-009
    30	0.4251	0	1.2245e-009
    31	0.353076	0	1.2245e-009
    32	0.282802	0	1.2245e-009
    33	0.214287	0	1.2245e-009
    34	0.147691	0	1.2245e-009
    35	0.0835859	0	1.2245e-009
    36	0.0217509	0	1.2245e-009
    37	0.525213	0	1.2245e-009
    38	0.474683	0	1.2245e-009
    39	0.424831	0	1.2245e-009
    40	0.351484	0	1.2245e-009
    41	0.279983	0	1.2245e-009
    42	0.210317	0	1.2245e-009
    43	0.142686	0	1.2245e-009
    44	0.0776396	0	1.2245e-009
    45	0.0139769	0	1.2245e-009
    46	0.526341	0	1.2245e-009
    47	0.474861	0	1.2245e-009
    48	0.424097	0	1.2245e-009
    49	0.349455	0	1.2245e-009
    50	0.276735	0	1.2245e-009
    51	0.205894	0	1.2245e-009
    52	0.137158	0	1.2245e-009
    53	0.0709477	0	1.2245e-009
    54	0.00426014	0	1.2245e-009
    55	0.527442	0	1.2245e-009
    56	0.473305	0	1.2245e-009
    57	0.419982	0	1.2245e-009
    58	0.341681	0	1.2245e-009
    59	0.265424	0	1.2245e-009
    60	0.191051	0	1.2245e-009
    61	0.118854	0	1.2245e-009
    62	0.0481835	0	1.2245e-009
    63	-2.73616e-006	0	1.2245e-009
    64	0.526339	0	1.2245e-009
    65	0.469834	0	1.2245e-009
    66	0.414228	0	1.2245e-009
    67	0.332626	0	1.2245e-009
    68	0.253081	0	1.2245e-009
    69	0.175348	0	1.2245e-009
    70	0.0997551	0	1.2245e-009
    71	0.0233219	0	1.2245e-009
    72	-3.07752e-006	0	1.2245e-009
    73	0.536272	0	1.2245e-009
    74	0.489228	0	1.2245e-009
    75	0.442274	0	1.2245e-009
    76	0.371824	0	1.2245e-009
    77	0.300798	0	1.2245e-009
    78	0.227735	0	1.2245e-009
    79	0.148195	0	1.2245e-009
    80	0.0165521	0	1.2245e-009
    81	-1.11566e-005	0	1.2245e-009
    82	0.560719	0	1.2245e-009
    83	0.510794	0	1.2245e-009
    84	0.461321	0	1.2245e-009
    85	0.388019	0	1.2245e-009
    86	0.315805	0	1.2245e-009
    87	0.244467	0	1.2245e-009
    88	0.173506	0	1.2245e-009
    89	0.101472	0	1.2245e-009
    90	-1.25513e-005	0	1.2245e-009
    91	0.568515	0	1.2245e-009
    92	0.516522	0	1.2245e-009
    93	0.465123	0	1.2245e-009
    94	0.389255	0	1.2245e-009
    95	0.314975	0	1.2245e-009
    96	0.242251	0	1.2245e-009
    97	0.17108	0	1.2245e-009
    98	0.101668	0	1.2245e-009
    99	0.0331499	0	1.2245e-009
   100	0.570826	0	1.2245e-009
   101	0.517813	0	1.2245e-009
   102	0.465448	0	1.2245e-009
   103	0.388255	0	1.2245e-009
   104	0.312817	0	1.2245e-009
   105	0.239127	0	1.2245e-009
   106	0.167295	0	1.2245e-009
   107	0.0978248	0	1.2245e-009
   108	0.0306649	0	1.2245e-009
   109	0.572347	0	1.2245e-009
   110	0.518334	0	1.2245e-009
   111	0.465017	0	1.2245e-009
   112	0.386501	0	1.2245e-009
   113	0.309868	0	1.2245e-009
   114	0.235115	0	1.2245e-009
   115	0.162417	0	1.2245e-009
   116	0.092405	0	1.2245e-009
   117	0.0248831	0	1.2245e-009
   118	0.573229	0	1.2245e-009
   119	0.51824	0	1.2245e-009
   120	0.463991	0	1.2245e-009
   121	0.384167	0	1.2245e-009
   122	0.306327	0	1.2245e-009
   123	0.230446	0	1.2245e-009
   124	0.15675	0	1.2245e-009
   125	0.0858561	0	1.2245e-009
   126	0.0166218	0	1.2245e-009
   127	0.573118	0	1.2245e-009
   128	0.515377	0	1.2245e-009
   129	0.458487	0	1.2245e-009
   130	0.374912	0	1.2245e-009
   131	0.293486	0	1.2245e-009
   132	0.214073	0	1.2245e-009
   133	0.137	0	1.2245e-009
   134	0.0621089	0	1.2245e-009
   135	-2.44551e-006	0	1.2245e-009
   136	0.570404	0	1.2245e-009
   137	0.510193	0	1.2245e-009
   138	0.450926	0	1.2245e-009
   139	0.363923	0	1.2245e-009
   140	0.279089	0	1.2245e-009
   141	0.196193	0	1.2245e-009
   142	0.11563	0	1.2245e-009
   143	0.0352172	0	1.2245e-009
   144	-3.38764e-006	0	1.2245e-009
   145	0.578631	0	1.2245e-009
   146	0.527606	0	1.2245e-009
   147	0.47647	0	1.2245e-009
   148	0.399175	0	1.2245e-009
   149	0.320093	0	1.2245e-009
   150	0.236279	0	1.2245e-009
   151	0.136382	0	1.2245e-009
   152	-1.41962e-005	0	1.2245e-009
   153	-1.14435e-005	0	1.2245e-009
   154	0.608179	0	1.2245e-009
   155	0.554652	0	1.2245e-009
   156	0.501524	0	1.2245e-009
   157	0.42258	0	1.2245e-009
   158	0.344416	0	1.2245e-009
   159	0.266566	0	1.2245e-009
   160	0.187888	0	1.2245e-009
   161	0.104322	0	1.2245e-009
   162	-1.18928e-005	0	1.2245e-009
   163	0.617078	0	1.2245e-009
   164	0.561545	0	1.2245e-009
   165	0.506587	0	1.2245e-009
   166	0.425332	0	1.2245e-009
   167	0.345557	0	1.2245e-009
   168	0.267143	0	1.2245e-009
   169	0.189877	0	1.2245e-009
   170	0.113336	0	1.2245e-009
   171	0.0334333	0	1.2245e-009
   172	0.619546	0	1.2245e-009
   173	0.562995	0	1.2245e-009
   174	0.50709	0	1.2245e-009
   175	0.424567	0	1.2245e-009
   176	0.343753	0	1.2245e-009
   177	0.264598	0	1.2245e-009
   178	0.187091	0	1.2245e-009
   179	0.11144	0	1.2245e-009
   180	0.036576	0	1.2245e-009
   181	0.621036	0	1.2245e-009
   182	0.563478	0	1.2245e-009
   183	0.506623	0	1.2245e-009
   184	0.422807	0	1.2245e-009
   185	0.340876	0	1.2245e-009
   186	0.260807	0	1.2245e-009
   187	0.182717	0	1.2245e-009
   188	0.10715	0	1.2245e-009
   189	0.0339966	0	1.2245e-009
   190	0.621739	0	1.2245e-009
   191	0.563189	0	1.2245e-009
   192	0.505395	0	1.2245e-009
   193	0.420282	0	1.2245e-009
   194	0.337188	0	1.2245e-009
   195	0.256091	0	1.2245e-009
   196	0.177191	0	1.2245e-009
   197	0.101175	0	1.2245e-009
   198	0.0278472	0	1.2245e-009
   199	0.620491	0	1.2245e-009
   200	0.559116	0	1.2245e-009
   201	0.498625	0	1.2245e-009
   202	0.409717	0	1.2245e-009
   203	0.323053	0	1.2245e-009
   204	0.238523	0	1.2245e-009
   205	0.156478	0	1.2245e-009
   206	0.0771778	0	1.2245e-009
   207	0.000151153	0	1.2245e-009
   208	0.616126	0	1.2245e-009
   209	0.552191	0	1.2245e-009
   210	0.489244	0	1.2245e-009
   211	0.396807	0	1.2245e-009
   212	0.306652	0	1.2245e-009
   213	0.218569	0	1.2245e-009
   214	0.133011	0	1.2245e-009
   215	0.0485164	0	1.2245e-009
   216	-2.40617e-006	0	1.2245e-009
   217	0.619829	0	1.2245e-009
   218	0.564417	0	1.2245e-009
   219	0.508591	0	1.2245e-009
   220	0.423364	0	1.2245e-009
   221	0.334319	0	1.2245e-009
   222	0.235317	0	1.2245e-009
   223	0.0818358	0	1.2245e-009
   224	-1.72798e-005	0	1.2245e-009
   225	-1.0463e-005	0	1.2245e-009
   226	0.656205	0	1.2245e-009
   227	0.598902	0	1.2245e-009
   228	0.541906	0	1.2245e-009
   229	0.456916	0	1.2245e-009
   230	0.372219	0	1.2245e-009
   231	0.286912	0	1.2245e-009
   232	0.19865	0	1.2245e-009
   233	0.0967736	0	1.2245e-009
   234	-1.26038e-005	0	1.2245e-009
   235	0.666755	0	1.2245e-009
   236	0.607566	0	1.2245e-009
   237	0.54892	0	1.2245e-009
   238	0.46203	0	1.2245e-009
   239	0.376422	0	1.2245e-009
   240	0.291821	0	1.2245e-009
   241	0.207634	0	1.2245e-009
   242	0.122137	0	1.2245e-009
   243	-1.60297e-005	0	1.2245e-009
   244	0.669555	0	1.2245e-009
   245	0.609374	0	1.2245e-009
   246	0.549821	0	1.2245e-009
   247	0.461772	0	1.2245e-009
   248	0.375318	0	1.2245e-009
   249	0.290318	0	1.2245e-009
   250	0.206541	0	1.2245e-009
   251	0.123528	0	1.2245e-009
   252	0.0367569	0	1.2245e-009
   253	0.671144	0	1.2245e-009
   254	0.609964	0	1.2245e-009
   255	0.549484	0	1.2245e-009
   256	0.46021	0	1.2245e-009
   257	0.372769	0	1.2245e-009
   258	0.287093	0	1.2245e-009
   259	0.203172	0	1.2245e-009
   260	0.121228	0	1.2245e-009
   261	0.0400273	0	1.2245e-009
   262	0.671762	0	1.2245e-009
   263	0.609589	0	1.2245e-009
   264	0.548179	0	1.2245e-009
   265	0.457646	0	1.2245e-009
   266	0.36913	0	1.2245e-009
   267	0.28259	0	1.2245e-009
   268	0.198158	0	1.2245e-009
   269	0.116422	0	1.2245e-009
   270	0.0372217	0	1.2245e-009
   271	0.669512	0	1.2245e-009
   272	0.604466	0	1.2245e-009
   273	0.540334	0	1.2245e-009
   274	0.446019	0	1.2245e-009
   275	0.354031	0	1.2245e-009
   276	0.26428	0	1.2245e-009
   277	0.177126	0	1.2245e-009
   278	0.0931542	0	1.2245e-009
   279	0.0091153	0	1.2245e-009
   280	0.663493	0	1.2245e-009
   281	0.595813	0	1.2245e-009
   282	0.529161	0	1.2245e-009
   283	0.431248	0	1.2245e-009
   284	0.335732	0	1.2245e-009
   285	0.242423	0	1.2245e-009
   286	0.151823	0	1.2245e-009
   287	0.0631225	0	1.2245e-009
   288	-3.31162e-006	0	1.2245e-009
   289	0.659055	0	1.2245e-009
   290	0.598724	0	1.2245e-009
   291	0.537516	0	1.2245e-009
   292	0.442791	0	1.2245e-009
   293	0.340685	0	1.2245e-009
   294	0.216724	0	1.2245e-009
   295	-4.30355e-006	0	1.2245e-009
   296	-1.88311e-005	0	1.2245e-009
   297	-1.16768e-005	0	1.2245e-009
   298	0.704426	0	1.2245e-009
   299	0.643128	0	1.2245e-009
   300	0.582005	0	1.2245e-009
   301	0.490452	0	1.2245e-009
   302	0.398445	0	1.2245e-009
   303	0.304345	0	1.2245e-009
   304	0.203429	0	1.2245e-009
   305	0.0603094	0	1.2245e-009
   306	-1.39282e-005	0	1.2245e-009
   307	0.717301	0	1.2245e-009
   308	0.654322	0	1.2245e-009
   309	0.591825	0	1.2245e-009
   310	0.498997	0	1.2245e-009
   311	0.40713	0	1.2245e-009
   312	0.315686	0	1.2245e-009
   313	0.22341	0	1.2245e-009
   314	0.125898	0	1.2245e-009
   315	-1.4301e-005	0	1.2245e-009
   316	0.720655	0	1.2245e-009
   317	0.656734	0	1.2245e-009
   318	0.593403	0	1.2245e-009
   319	0.499587	0	1.2245e-009
   320	0.407163	0	1.2245e-009
   321	0.315831	0	1.2245e-009
   322	0.224972	0	1.2245e-009
   323	0.132804	0	1.2245e-009
   324	-1.73658e-005	0	1.2245e-009
   325	0.722511	0	1.2245e-009
   326	0.65762	0	1.2245e-009
   327	0.59341	0	1.2245e-009
   328	0.498483	0	1.2245e-009
   329	0.405273	0	1.2245e-009
   330	0.313617	0	1.2245e-009
   331	0.223276	0	1.2245e-009
   332	0.133786	0	1.2245e-009
   333	0.0403429	0	1.2245e-009
   334	0.72317	0	1.2245e-009
   335	0.657299	0	1.2245e-009
   336	0.592186	0	1.2245e-009
   337	0.496076	0	1.2245e-009
   338	0.401931	0	1.2245e-009
   339	0.309658	0	1.2245e-009
   340	0.219258	0	1.2245e-009
   341	0.130985	0	1.2245e-009
   342	0.0434901	0	1.2245e-009
   343	0.720117	0	1.2245e-009
   344	0.651358	0	1.2245e-009
   345	0.583534	0	1.2245e-009
   346	0.483726	0	1.2245e-009
   347	0.386305	0	1.2245e-009
   348	0.291195	0	1.2245e-009
   349	0.198747	0	1.2245e-009
   350	0.109755	0	1.2245e-009
   351	0.0229345	0	1.2245e-009
   352	0.712482	0	1.2245e-009
   353	0.64103	0	1.2245e-009
   354	0.570645	0	1.2245e-009
   355	0.467207	0	1.2245e-009
   356	0.366276	0	1.2245e-009
   357	0.267682	0	1.2245e-009
   358	0.171967	0	1.2245e-009
   359	0.0788987	0	1.2245e-009
   360	-1.7325e-006	0	1.2245e-009
   361	0.695328	0	1.2245e-009
   362	0.629359	0	1.2245e-009
   363	0.561801	0	1.2245e-009
   364	0.455194	0	1.2245e-009
   365	0.334396	0	1.2245e-009
   366	0.147571	0	1.2245e-009
   367	-1.11393e-005	0	1.2245e-009
   368	-2.08091e-005	0	1.2245e-009
   369	-1.1549e-005	0	1.2245e-009
   370	0.752411	0	1.2245e-009
   371	0.686849	0	1.2245e-009
   372	0.621272	0	1.2245e-009
   373	0.522496	0	1.2245e-009
   374	0.422134	0	1.2245e-009
   375	0.317264	0	1.2245e-009
   376	0.197974	0	1.2245e-009
   377	-1.54667e-005	0	1.2245e-009
   378	-1.33602e-005	0	1.2245e-009
   379	0.768443	0	1.2245e-009
   380	0.701507	0	1.2245e-009
   381	0.634966	0	1.2245e-009
   382	0.535823	0	1.2245e-009
   383	0.437153	0	1.2245e-009
   384	0.337995	0	1.2245e-009
   385	0.235929	0	1.2245e-009
   386	0.120498	0	1.2245e-009
   387	-1.46201e-005	0	1.2245e-009
   388	0.772624	0	1.2245e-009
   389	0.704829	0	1.2245e-009
   390	0.637567	0	1.2245e-009
   391	0.537688	0	1.2245e-009
   392	0.43888	0	1.2245e-009
   393	0.340583	0	1.2245e-009
   394	0.241518	0	1.2245e-009
   395	0.137273	0	1.2245e-009
   396	-1.53355e-005	0	1.2245e-009
   397	0.774955	0	1.2245e-009
   398	0.706244	0	1.2245e-009
   399	0.638178	0	1.2245e-009
   400	0.537364	0	1.2245e-009
   401	0.438063	0	1.2245e-009
   402	0.339953	0	1.2245e-009
   403	0.242404	0	1.2245e-009
   404	0.143629	0	1.2245e-009
   405	-1.86861e-005	0	1.2245e-009
   406	0.775814	0	1.2245e-009
   407	0.706156	0	1.2245e-009
   408	0.637238	0	1.2245e-009
   409	0.535362	0	1.2245e-009
   410	0.43533	0	1.2245e-009
   411	0.336961	0	1.2245e-009
   412	0.240018	0	1.2245e-009
   413	0.144062	0	1.2245e-009
   414	0.0441722	0	1.2245e-009
   415	0.772229	0	1.2245e-009
   416	0.699706	0	1.2245e-009
   417	0.628132	0	1.2245e-009
   418	0.522724	0	1.2245e-009
   419	0.419737	0	1.2245e-009
   420	0.319094	0	1.2245e-009
   421	0.221108	0	1.2245e-009
   422	0.126644	0	1.2245e-009
   423	0.035374	0	1.2245e-009
   424	0.763058	0	1.2245e-009
   425	0.687805	0	1.2245e-009
   426	0.613651	0	1.2245e-009
   427	0.504629	0	1.2245e-009
   428	0.398213	0	1.2245e-009
   429	0.294256	0	1.2245e-009
   430	0.193323	0	1.2245e-009
   431	0.0956708	0	1.2245e-009
   432	0.000211614	0	1.2245e-009
   433	0.727436	0	1.2245e-009
   434	0.654834	0	1.2245e-009
   435	0.579512	0	1.2245e-009
   436	0.457099	0	1.2245e-009
   437	0.305014	0	1.2245e-009
   438	8.58284e-006	0	1.2245e-009
   439	-1.58567e-005	0	1.2245e-009
   440	-1.89301e-005	0	1.2245e-009
   441	-1.2476e-005	0	1.2245e-009
   442	0.799669	0	1.2245e-009
   443	0.729512	0	1.2245e-009
   444	0.659068	0	1.2245e-009
   445	0.552203	0	1.2245e-009
   446	0.442029	0	1.2245e-009
   447	0.323286	0	1.2245e-009
   448	0.171862	0	1.2245e-009
   449	-2.1483e-005	0	1.2245e-009
   450	-1.37774e-005	0	1.2245e-009
   451	0.819868	0	1.2245e-009
   452	0.748778	0	1.2245e-009
   453	0.677954	0	1.2245e-009
   454	0.572029	0	1.2245e-009
   455	0.46586	0	1.2245e-009
   456	0.357803	0	1.2245e-009
   457	0.243323	0	1.2245e-009
   458	0.0945031	0	1.2245e-009
   459	-1.59835e-005	0	1.2245e-009
   460	0.825208	0	1.2245e-009
   461	0.753382	0	1.2245e-009
   462	0.682001	0	1.2245e-009
   463	0.575698	0	1.2245e-009
   464	0.469988	0	1.2245e-009
   465	0.363895	0	1.2245e-009
   466	0.255021	0	1.2245e-009
   467	0.133317	0	1.2245e-009
   468	-1.6536e-005	0	1.2245e-009
   469	0.828269	0	1.2245e-009
   470	0.755611	0	1.2245e-009
   471	0.68354	0	1.2245e-009
   472	0.576553	0	1.2245e-009
   473	0.470763	0	1.2245e-009
   474	0.365589	0	1.2245e-009
   475	0.259757	0	1.2245e-009
   476	0.148943	0	1.2245e-009
   477	-1.65216e-005	0	1.2245e-009
   478	0.829524	0	1.2245e-009
   479	0.755975	0	1.2245e-009
   480	0.683129	0	1.2245e-009
   481	0.575259	0	1.2245e-009
   482	0.46903	0	1.2245e-009
   483	0.364104	0	1.2245e-009
   484	0.259857	0	1.2245e-009
   485	0.154552	0	1.2245e-009
   486	-2.08655e-005	0	1.2245e-009
   487	0.825755	0	1.2245e-009
   488	0.749407	0	1.2245e-009
   489	0.674014	0	1.2245e-009
   490	0.562882	0	1.2245e-009
   491	0.454168	0	1.2245e-009
   492	0.347774	0	1.2245e-009
   493	0.243932	0	1.2245e-009
   494	0.143412	0	1.2245e-009
   495	0.0459406	0	1.2245e-009
   496	0.815176	0	1.2245e-009
   497	0.736085	0	1.2245e-009
   498	0.658122	0	1.2245e-009
   499	0.543443	0	1.2245e-009
   500	0.431458	0	1.2245e-009
   501	0.322034	0	1.2245e-009
   502	0.215745	0	1.2245e-009
   503	0.113232	0	1.2245e-009
   504	0.0102847	0	1.2245e-009
   505	0.678617	0	1.2245e-009
   506	0.636702	0	1.2245e-009
   507	0.587761	0	1.2245e-009
   508	0.442346	0	1.2245e-009
   509	0.207644	0	1.2245e-009
   510	3.04351e-006	0	1.2245e-009
   511	-2.19153e-005	0	1.2245e-009
   512	-2.0606e-005	0	1.2245e-009
   513	-1.28235e-005	0	1.2245e-009
   514	0.770859	0	1.2245e-009
   515	0.728955	0	1.2245e-009
   516	0.684233	0	1.2245e-009
   517	0.578518	0	1.2245e-009
   518	0.456424	0	1.2245e-009
   519	0.318423	0	1.2245e-009
   520	-3.24202e-005	0	1.2245e-009
   521	-2.45128e-005	0	1.2245e-009
   522	-1.40485e-005	0	1.2245e-009
   523	0.809191	0	1.2245e-009
   524	0.764941	0	1.2245e-009
   525	0.717394	0	1.2245e-009
   526	0.607054	0	1.2245e-009
   527	0.492477	0	1.2245e-009
   528	0.373858	0	1.2245e-009
   529	0.242543	0	1.2245e-009
   530	-1.63499e-005	0	1.2245e-009
   531	-1.56017e-005	0	1.2245e-009
   532	0.823759	0	1.2245e-009
   533	0.777909	0	1.2245e-009
   534	0.726289	0	1.2245e-009
   535	0.613182	0	1.2245e-009
   536	0.499911	0	1.2245e-009
   537	0.384915	0	1.2245e-009
   538	0.263831	0	1.2245e-009
   539	0.111959	0	1.2245e-009
   540	-1.72807e-005	0	1.2245e-009
   541	0.835855	0	1.2245e-009
   542	0.788126	0	1.2245e-009
   543	0.729209	0	1.2245e-009
   544	0.615706	0	1.2245e-009
   545	0.502931	0	1.2245e-009
   546	0.389907	0	1.2245e-009
   547	0.274291	0	1.2245e-009
   548	0.14658	0	1.2245e-009
   549	-1.79317e-005	0	1.2245e-009
   550	0.845787	0	1.2245e-009
   551	0.795896	0	1.2245e-009
   552	0.729629	0	1.2245e-009
   553	0.61549	0	1.2245e-009
   554	0.502683	0	1.2245e-009
   555	0.390617	0	1.2245e-009
   556	0.278047	0	1.2245e-009
   557	0.160819	0	1.2245e-009
   558	-1.80108e-005	0	1.2245e-009
   559	0.864711	0	1.2245e-009
   560	0.800346	0	1.2245e-009
   561	0.721054	0	1.2245e-009
   562	0.60405	0	1.2245e-009
   563	0.489414	0	1.2245e-009
   564	0.376999	0	1.2245e-009
   565	0.266896	0	1.2245e-009
   566	0.159553	0	1.2245e-009
   567	0.0536137	0	1.2245e-009
   568	0.86871	0	1.2245e-009
   569	0.785808	0	1.2245e-009
   570	0.703988	0	1.2245e-009
   571	0.583569	0	1.2245e-009
   572	0.465912	0	1.2245e-009
   573	0.35089	0	1.2245e-009
   574	0.239065	0	1.2245e-009
   575	0.131343	0	1.2245e-009
   576	0.0257892	0	1.2245e-009

Measurement: eff
  step	AVG(pout/pin)	FROM	TO
     1	0.757368	0	1.2245e-009
     2	0.755032	0	1.2245e-009
     3	0.751707	0	1.2245e-009
     4	0.744168	0	1.2245e-009
     5	0.731899	0	1.2245e-009
     6	0.711094	0	1.2245e-009
     7	0.670976	0	1.2245e-009
     8	0.552549	0	1.2245e-009
     9	-0.00196878	0	1.2245e-009
    10	0.76161	0	1.2245e-009
    11	0.759789	0	1.2245e-009
    12	0.756993	0	1.2245e-009
    13	0.750358	0	1.2245e-009
    14	0.739351	0	1.2245e-009
    15	0.720784	0	1.2245e-009
    16	0.687296	0	1.2245e-009
    17	0.617548	0	1.2245e-009
    18	0.384202	0	1.2245e-009
    19	0.763564	0	1.2245e-009
    20	0.761912	0	1.2245e-009
    21	0.759277	0	1.2245e-009
    22	0.752792	0	1.2245e-009
    23	0.741764	0	1.2245e-009
    24	0.722742	0	1.2245e-009
    25	0.687779	0	1.2245e-009
    26	0.6145	0	1.2245e-009
    27	0.388318	0	1.2245e-009
    28	0.764376	0	1.2245e-009
    29	0.762786	0	1.2245e-009
    30	0.760197	0	1.2245e-009
    31	0.753722	0	1.2245e-009
    32	0.742536	0	1.2245e-009
    33	0.722976	0	1.2245e-009
    34	0.686393	0	1.2245e-009
    35	0.607712	0	1.2245e-009
    36	0.344819	0	1.2245e-009
    37	0.765101	0	1.2245e-009
    38	0.763566	0	1.2245e-009
    39	0.761002	0	1.2245e-009
    40	0.754498	0	1.2245e-009
    41	0.743102	0	1.2245e-009
    42	0.722823	0	1.2245e-009
    43	0.684154	0	1.2245e-009
    44	0.597785	0	1.2245e-009
    45	0.262126	0	1.2245e-009
    46	0.765762	0	1.2245e-009
    47	0.764266	0	1.2245e-009
    48	0.761715	0	1.2245e-009
    49	0.755153	0	1.2245e-009
    50	0.743493	0	1.2245e-009
    51	0.722347	0	1.2245e-009
    52	0.68114	0	1.2245e-009
    53	0.584558	0	1.2245e-009
    54	0.103362	0	1.2245e-009
    55	0.767399	0	1.2245e-009
    56	0.765985	0	1.2245e-009
    57	0.763437	0	1.2245e-009
    58	0.756596	0	1.2245e-009
    59	0.743833	0	1.2245e-009
    60	0.719339	0	1.2245e-009
    61	0.667802	0	1.2245e-009
    62	0.518609	0	1.2245e-009
    63	-0.000100398	0	1.2245e-009
    64	0.768683	0	1.2245e-009
    65	0.767313	0	1.2245e-009
    66	0.764719	0	1.2245e-009
    67	0.757465	0	1.2245e-009
    68	0.743257	0	1.2245e-009
    69	0.714458	0	1.2245e-009
    70	0.647907	0	1.2245e-009
    71	0.374264	0	1.2245e-009
    72	-0.000157418	0	1.2245e-009
    73	0.761402	0	1.2245e-009
    74	0.758777	0	1.2245e-009
    75	0.755138	0	1.2245e-009
    76	0.746975	0	1.2245e-009
    77	0.733695	0	1.2245e-009
    78	0.710665	0	1.2245e-009
    79	0.662049	0	1.2245e-009
    80	0.255328	0	1.2245e-009
    81	-0.00293305	0	1.2245e-009
    82	0.766151	0	1.2245e-009
    83	0.76412	0	1.2245e-009
    84	0.761125	0	1.2245e-009
    85	0.754208	0	1.2245e-009
    86	0.742953	0	1.2245e-009
    87	0.724179	0	1.2245e-009
    88	0.69029	0	1.2245e-009
    89	0.617278	0	1.2245e-009
    90	-0.000948425	0	1.2245e-009
    91	0.76829	0	1.2245e-009
    92	0.766439	0	1.2245e-009
    93	0.763629	0	1.2245e-009
    94	0.756943	0	1.2245e-009
    95	0.745852	0	1.2245e-009
    96	0.727076	0	1.2245e-009
    97	0.693183	0	1.2245e-009
    98	0.62329	0	1.2245e-009
    99	0.409798	0	1.2245e-009
   100	0.769165	0	1.2245e-009
   101	0.767387	0	1.2245e-009
   102	0.764619	0	1.2245e-009
   103	0.757961	0	1.2245e-009
   104	0.746776	0	1.2245e-009
   105	0.727628	0	1.2245e-009
   106	0.692644	0	1.2245e-009
   107	0.619735	0	1.2245e-009
   108	0.396464	0	1.2245e-009
   109	0.769945	0	1.2245e-009
   110	0.768219	0	1.2245e-009
   111	0.765491	0	1.2245e-009
   112	0.758811	0	1.2245e-009
   113	0.747444	0	1.2245e-009
   114	0.727732	0	1.2245e-009
   115	0.691119	0	1.2245e-009
   116	0.612952	0	1.2245e-009
   117	0.35592	0	1.2245e-009
   118	0.770654	0	1.2245e-009
   119	0.768964	0	1.2245e-009
   120	0.766249	0	1.2245e-009
   121	0.759519	0	1.2245e-009
   122	0.747917	0	1.2245e-009
   123	0.727455	0	1.2245e-009
   124	0.688738	0	1.2245e-009
   125	0.603062	0	1.2245e-009
   126	0.278976	0	1.2245e-009
   127	0.772413	0	1.2245e-009
   128	0.770784	0	1.2245e-009
   129	0.768054	0	1.2245e-009
   130	0.76103	0	1.2245e-009
   131	0.748372	0	1.2245e-009
   132	0.724814	0	1.2245e-009
   133	0.677062	0	1.2245e-009
   134	0.551462	0	1.2245e-009
   135	-7.28746e-005	0	1.2245e-009
   136	0.773776	0	1.2245e-009
   137	0.772171	0	1.2245e-009
   138	0.769361	0	1.2245e-009
   139	0.76189	0	1.2245e-009
   140	0.747776	0	1.2245e-009
   141	0.720035	0	1.2245e-009
   142	0.658702	0	1.2245e-009
   143	0.442634	0	1.2245e-009
   144	-0.00013974	0	1.2245e-009
   145	0.764797	0	1.2245e-009
   146	0.761862	0	1.2245e-009
   147	0.75784	0	1.2245e-009
   148	0.748887	0	1.2245e-009
   149	0.734181	0	1.2245e-009
   150	0.707342	0	1.2245e-009
   151	0.638679	0	1.2245e-009
   152	-0.000961364	0	1.2245e-009
   153	-0.00374885	0	1.2245e-009
   154	0.770129	0	1.2245e-009
   155	0.767901	0	1.2245e-009
   156	0.764704	0	1.2245e-009
   157	0.757471	0	1.2245e-009
   158	0.745858	0	1.2245e-009
   159	0.726546	0	1.2245e-009
   160	0.691147	0	1.2245e-009
   161	0.608304	0	1.2245e-009
   162	-0.00143353	0	1.2245e-009
   163	0.772466	0	1.2245e-009
   164	0.770443	0	1.2245e-009
   165	0.767459	0	1.2245e-009
   166	0.760575	0	1.2245e-009
   167	0.74937	0	1.2245e-009
   168	0.73066	0	1.2245e-009
   169	0.697189	0	1.2245e-009
   170	0.627822	0	1.2245e-009
   171	0.393046	0	1.2245e-009
   172	0.773418	0	1.2245e-009
   173	0.77146	0	1.2245e-009
   174	0.768543	0	1.2245e-009
   175	0.761709	0	1.2245e-009
   176	0.750487	0	1.2245e-009
   177	0.731597	0	1.2245e-009
   178	0.697638	0	1.2245e-009
   179	0.627863	0	1.2245e-009
   180	0.415	0	1.2245e-009
   181	0.774259	0	1.2245e-009
   182	0.772366	0	1.2245e-009
   183	0.769481	0	1.2245e-009
   184	0.762648	0	1.2245e-009
   185	0.751304	0	1.2245e-009
   186	0.732005	0	1.2245e-009
   187	0.696925	0	1.2245e-009
   188	0.624173	0	1.2245e-009
   189	0.402591	0	1.2245e-009
   190	0.775016	0	1.2245e-009
   191	0.773161	0	1.2245e-009
   192	0.770297	0	1.2245e-009
   193	0.763429	0	1.2245e-009
   194	0.751877	0	1.2245e-009
   195	0.731983	0	1.2245e-009
   196	0.695252	0	1.2245e-009
   197	0.617303	0	1.2245e-009
   198	0.363696	0	1.2245e-009
   199	0.776891	0	1.2245e-009
   200	0.775087	0	1.2245e-009
   201	0.772199	0	1.2245e-009
   202	0.76504	0	1.2245e-009
   203	0.752518	0	1.2245e-009
   204	0.729832	0	1.2245e-009
   205	0.685356	0	1.2245e-009
   206	0.577128	0	1.2245e-009
   207	0.0037114	0	1.2245e-009
   208	0.778334	0	1.2245e-009
   209	0.776524	0	1.2245e-009
   210	0.773546	0	1.2245e-009
   211	0.765916	0	1.2245e-009
   212	0.751952	0	1.2245e-009
   213	0.725292	0	1.2245e-009
   214	0.668661	0	1.2245e-009
   215	0.492567	0	1.2245e-009
   216	-8.09982e-005	0	1.2245e-009
   217	0.767594	0	1.2245e-009
   218	0.764298	0	1.2245e-009
   219	0.759821	0	1.2245e-009
   220	0.749789	0	1.2245e-009
   221	0.732916	0	1.2245e-009
   222	0.699211	0	1.2245e-009
   223	0.53635	0	1.2245e-009
   224	-0.00150058	0	1.2245e-009
   225	-0.00412899	0	1.2245e-009
   226	0.773616	0	1.2245e-009
   227	0.771187	0	1.2245e-009
   228	0.767768	0	1.2245e-009
   229	0.760163	0	1.2245e-009
   230	0.748043	0	1.2245e-009
   231	0.727764	0	1.2245e-009
   232	0.689304	0	1.2245e-009
   233	0.581352	0	1.2245e-009
   234	-0.00205246	0	1.2245e-009
   235	0.776179	0	1.2245e-009
   236	0.773985	0	1.2245e-009
   237	0.770841	0	1.2245e-009
   238	0.763732	0	1.2245e-009
   239	0.752334	0	1.2245e-009
   240	0.73349	0	1.2245e-009
   241	0.699716	0	1.2245e-009
   242	0.627464	0	1.2245e-009
   243	-0.0011351	0	1.2245e-009
   244	0.777208	0	1.2245e-009
   245	0.775093	0	1.2245e-009
   246	0.772025	0	1.2245e-009
   247	0.765012	0	1.2245e-009
   248	0.753694	0	1.2245e-009
   249	0.734893	0	1.2245e-009
   250	0.701375	0	1.2245e-009
   251	0.632117	0	1.2245e-009
   252	0.398404	0	1.2245e-009
   253	0.778116	0	1.2245e-009
   254	0.77606	0	1.2245e-009
   255	0.773041	0	1.2245e-009
   256	0.766061	0	1.2245e-009
   257	0.754691	0	1.2245e-009
   258	0.73567	0	1.2245e-009
   259	0.701602	0	1.2245e-009
   260	0.631829	0	1.2245e-009
   261	0.419471	0	1.2245e-009
   262	0.778927	0	1.2245e-009
   263	0.776915	0	1.2245e-009
   264	0.77392	0	1.2245e-009
   265	0.766921	0	1.2245e-009
   266	0.75541	0	1.2245e-009
   267	0.735938	0	1.2245e-009
   268	0.700708	0	1.2245e-009
   269	0.627915	0	1.2245e-009
   270	0.407068	0	1.2245e-009
   271	0.780918	0	1.2245e-009
   272	0.778958	0	1.2245e-009
   273	0.775937	0	1.2245e-009
   274	0.768679	0	1.2245e-009
   275	0.756291	0	1.2245e-009
   276	0.7344	0	1.2245e-009
   277	0.692712	0	1.2245e-009
   278	0.597378	0	1.2245e-009
   279	0.161164	0	1.2245e-009
   280	0.782436	0	1.2245e-009
   281	0.780456	0	1.2245e-009
   282	0.777333	0	1.2245e-009
   283	0.769595	0	1.2245e-009
   284	0.755819	0	1.2245e-009
   285	0.730199	0	1.2245e-009
   286	0.67772	0	1.2245e-009
   287	0.530466	0	1.2245e-009
   288	-9.22057e-005	0	1.2245e-009
   289	0.769811	0	1.2245e-009
   290	0.766093	0	1.2245e-009
   291	0.761016	0	1.2245e-009
   292	0.74955	0	1.2245e-009
   293	0.729212	0	1.2245e-009
   294	0.68048	0	1.2245e-009
   295	-0.000164514	0	1.2245e-009
   296	-0.0019768	0	1.2245e-009
   297	-0.00540246	0	1.2245e-009
   298	0.776656	0	1.2245e-009
   299	0.774014	0	1.2245e-009
   300	0.770355	0	1.2245e-009
   301	0.762305	0	1.2245e-009
   302	0.749471	0	1.2245e-009
   303	0.727637	0	1.2245e-009
   304	0.683485	0	1.2245e-009
   305	0.473326	0	1.2245e-009
   306	-0.002863	0	1.2245e-009
   307	0.779476	0	1.2245e-009
   308	0.77712	0	1.2245e-009
   309	0.773803	0	1.2245e-009
   310	0.766436	0	1.2245e-009
   311	0.754768	0	1.2245e-009
   312	0.735503	0	1.2245e-009
   313	0.70055	0	1.2245e-009
   314	0.620255	0	1.2245e-009
   315	-0.00151812	0	1.2245e-009
   316	0.780592	0	1.2245e-009
   317	0.778323	0	1.2245e-009
   318	0.775104	0	1.2245e-009
   319	0.767895	0	1.2245e-009
   320	0.756418	0	1.2245e-009
   321	0.737522	0	1.2245e-009
   322	0.703769	0	1.2245e-009
   323	0.631964	0	1.2245e-009
   324	-0.00116489	0	1.2245e-009
   325	0.781572	0	1.2245e-009
   326	0.77937	0	1.2245e-009
   327	0.776214	0	1.2245e-009
   328	0.76908	0	1.2245e-009
   329	0.757644	0	1.2245e-009
   330	0.738733	0	1.2245e-009
   331	0.705125	0	1.2245e-009
   332	0.635945	0	1.2245e-009
   333	0.404296	0	1.2245e-009
   334	0.782444	0	1.2245e-009
   335	0.780282	0	1.2245e-009
   336	0.777164	0	1.2245e-009
   337	0.770041	0	1.2245e-009
   338	0.758529	0	1.2245e-009
   339	0.739351	0	1.2245e-009
   340	0.705125	0	1.2245e-009
   341	0.63524	0	1.2245e-009
   342	0.423282	0	1.2245e-009
   343	0.784555	0	1.2245e-009
   344	0.782457	0	1.2245e-009
   345	0.779322	0	1.2245e-009
   346	0.771979	0	1.2245e-009
   347	0.759728	0	1.2245e-009
   348	0.738523	0	1.2245e-009
   349	0.699161	0	1.2245e-009
   350	0.613385	0	1.2245e-009
   351	0.299391	0	1.2245e-009
   352	0.786144	0	1.2245e-009
   353	0.784017	0	1.2245e-009
   354	0.78078	0	1.2245e-009
   355	0.772967	0	1.2245e-009
   356	0.759393	0	1.2245e-009
   357	0.734767	0	1.2245e-009
   358	0.685918	0	1.2245e-009
   359	0.559987	0	1.2245e-009
   360	-4.04714e-005	0	1.2245e-009
   361	0.771431	0	1.2245e-009
   362	0.767171	0	1.2245e-009
   363	0.761303	0	1.2245e-009
   364	0.747759	0	1.2245e-009
   365	0.721394	0	1.2245e-009
   366	0.612408	0	1.2245e-009
   367	-0.00053653	0	1.2245e-009
   368	-0.00255407	0	1.2245e-009
   369	-0.00615042	0	1.2245e-009
   370	0.779287	0	1.2245e-009
   371	0.776407	0	1.2245e-009
   372	0.772477	0	1.2245e-009
   373	0.76388	0	1.2245e-009
   374	0.750086	0	1.2245e-009
   375	0.725812	0	1.2245e-009
   376	0.670547	0	1.2245e-009
   377	-0.00076919	0	1.2245e-009
   378	-0.00333181	0	1.2245e-009
   379	0.782401	0	1.2245e-009
   380	0.779869	0	1.2245e-009
   381	0.77638	0	1.2245e-009
   382	0.768717	0	1.2245e-009
   383	0.756645	0	1.2245e-009
   384	0.736632	0	1.2245e-009
   385	0.699313	0	1.2245e-009
   386	0.60038	0	1.2245e-009
   387	-0.00204212	0	1.2245e-009
   388	0.783611	0	1.2245e-009
   389	0.781189	0	1.2245e-009
   390	0.777816	0	1.2245e-009
   391	0.770388	0	1.2245e-009
   392	0.758669	0	1.2245e-009
   393	0.739417	0	1.2245e-009
   394	0.704656	0	1.2245e-009
   395	0.625781	0	1.2245e-009
   396	-0.00151562	0	1.2245e-009
   397	0.784668	0	1.2245e-009
   398	0.782327	0	1.2245e-009
   399	0.779038	0	1.2245e-009
   400	0.771726	0	1.2245e-009
   401	0.760168	0	1.2245e-009
   402	0.741197	0	1.2245e-009
   403	0.707445	0	1.2245e-009
   404	0.636097	0	1.2245e-009
   405	-0.00117446	0	1.2245e-009
   406	0.785603	0	1.2245e-009
   407	0.783312	0	1.2245e-009
   408	0.780079	0	1.2245e-009
   409	0.772813	0	1.2245e-009
   410	0.761254	0	1.2245e-009
   411	0.74222	0	1.2245e-009
   412	0.708487	0	1.2245e-009
   413	0.639335	0	1.2245e-009
   414	0.410505	0	1.2245e-009
   415	0.78785	0	1.2245e-009
   416	0.785632	0	1.2245e-009
   417	0.782393	0	1.2245e-009
   418	0.774977	0	1.2245e-009
   419	0.762848	0	1.2245e-009
   420	0.742224	0	1.2245e-009
   421	0.704753	0	1.2245e-009
   422	0.625959	0	1.2245e-009
   423	0.372103	0	1.2245e-009
   424	0.789517	0	1.2245e-009
   425	0.787265	0	1.2245e-009
   426	0.78393	0	1.2245e-009
   427	0.776063	0	1.2245e-009
   428	0.762702	0	1.2245e-009
   429	0.738969	0	1.2245e-009
   430	0.69329	0	1.2245e-009
   431	0.583363	0	1.2245e-009
   432	0.00418932	0	1.2245e-009
   433	0.772418	0	1.2245e-009
   434	0.767451	0	1.2245e-009
   435	0.760548	0	1.2245e-009
   436	0.743703	0	1.2245e-009
   437	0.704342	0	1.2245e-009
   438	0.000227156	0	1.2245e-009
   439	-0.00090325	0	1.2245e-009
   440	-0.0026534	0	1.2245e-009
   441	-0.00750657	0	1.2245e-009
   442	0.781527	0	1.2245e-009
   443	0.778389	0	1.2245e-009
   444	0.774139	0	1.2245e-009
   445	0.764855	0	1.2245e-009
   446	0.7497	0	1.2245e-009
   447	0.721543	0	1.2245e-009
   448	0.639307	0	1.2245e-009
   449	-0.00135861	0	1.2245e-009
   450	-0.00404876	0	1.2245e-009
   451	0.784985	0	1.2245e-009
   452	0.782268	0	1.2245e-009
   453	0.778585	0	1.2245e-009
   454	0.770575	0	1.2245e-009
   455	0.757943	0	1.2245e-009
   456	0.736759	0	1.2245e-009
   457	0.695229	0	1.2245e-009
   458	0.54168	0	1.2245e-009
   459	-0.00277274	0	1.2245e-009
   460	0.786306	0	1.2245e-009
   461	0.783726	0	1.2245e-009
   462	0.780198	0	1.2245e-009
   463	0.7725	0	1.2245e-009
   464	0.760437	0	1.2245e-009
   465	0.740536	0	1.2245e-009
   466	0.703726	0	1.2245e-009
   467	0.609106	0	1.2245e-009
   468	-0.00213155	0	1.2245e-009
   469	0.78745	0	1.2245e-009
   470	0.784965	0	1.2245e-009
   471	0.781544	0	1.2245e-009
   472	0.774033	0	1.2245e-009
   473	0.762269	0	1.2245e-009
   474	0.743003	0	1.2245e-009
   475	0.708403	0	1.2245e-009
   476	0.630955	0	1.2245e-009
   477	-0.00151278	0	1.2245e-009
   478	0.788453	0	1.2245e-009
   479	0.786035	0	1.2245e-009
   480	0.782675	0	1.2245e-009
   481	0.775264	0	1.2245e-009
   482	0.763603	0	1.2245e-009
   483	0.744542	0	1.2245e-009
   484	0.710752	0	1.2245e-009
   485	0.639851	0	1.2245e-009
   486	-0.00121655	0	1.2245e-009
   487	0.790844	0	1.2245e-009
   488	0.788513	0	1.2245e-009
   489	0.785182	0	1.2245e-009
   490	0.777692	0	1.2245e-009
   491	0.765655	0	1.2245e-009
   492	0.745515	0	1.2245e-009
   493	0.709512	0	1.2245e-009
   494	0.635602	0	1.2245e-009
   495	0.412344	0	1.2245e-009
   496	0.792597	0	1.2245e-009
   497	0.790229	0	1.2245e-009
   498	0.786808	0	1.2245e-009
   499	0.778908	0	1.2245e-009
   500	0.765756	0	1.2245e-009
   501	0.742838	0	1.2245e-009
   502	0.699851	0	1.2245e-009
   503	0.602078	0	1.2245e-009
   504	0.151699	0	1.2245e-009
   505	0.706615	0	1.2245e-009
   506	0.732269	0	1.2245e-009
   507	0.758185	0	1.2245e-009
   508	0.735747	0	1.2245e-009
   509	0.642661	0	1.2245e-009
   510	9.94032e-005	0	1.2245e-009
   511	-0.00143029	0	1.2245e-009
   512	-0.00324443	0	1.2245e-009
   513	-0.0086117	0	1.2245e-009
   514	0.715608	0	1.2245e-009
   515	0.739018	0	1.2245e-009
   516	0.764032	0	1.2245e-009
   517	0.765125	0	1.2245e-009
   518	0.74802	0	1.2245e-009
   519	0.713203	0	1.2245e-009
   520	-0.000789559	0	1.2245e-009
   521	-0.00185772	0	1.2245e-009
   522	-0.00476947	0	1.2245e-009
   523	0.72838	0	1.2245e-009
   524	0.752254	0	1.2245e-009
   525	0.776984	0	1.2245e-009
   526	0.772006	0	1.2245e-009
   527	0.75862	0	1.2245e-009
   528	0.735656	0	1.2245e-009
   529	0.686629	0	1.2245e-009
   530	-0.00065093	0	1.2245e-009
   531	-0.00324259	0	1.2245e-009
   532	0.735669	0	1.2245e-009
   533	0.759926	0	1.2245e-009
   534	0.782184	0	1.2245e-009
   535	0.774242	0	1.2245e-009
   536	0.761681	0	1.2245e-009
   537	0.740769	0	1.2245e-009
   538	0.700379	0	1.2245e-009
   539	0.564772	0	1.2245e-009
   540	-0.00274892	0	1.2245e-009
   541	0.743338	0	1.2245e-009
   542	0.767938	0	1.2245e-009
   543	0.783746	0	1.2245e-009
   544	0.776005	0	1.2245e-009
   545	0.763935	0	1.2245e-009
   546	0.744118	0	1.2245e-009
   547	0.707773	0	1.2245e-009
   548	0.617138	0	1.2245e-009
   549	-0.00212684	0	1.2245e-009
   550	0.751248	0	1.2245e-009
   551	0.776073	0	1.2245e-009
   552	0.784993	0	1.2245e-009
   553	0.777406	0	1.2245e-009
   554	0.765581	0	1.2245e-009
   555	0.74628	0	1.2245e-009
   556	0.711827	0	1.2245e-009
   557	0.63573	0	1.2245e-009
   558	-0.00152119	0	1.2245e-009
   559	0.775198	0	1.2245e-009
   560	0.791132	0	1.2245e-009
   561	0.78772	0	1.2245e-009
   562	0.780158	0	1.2245e-009
   563	0.768175	0	1.2245e-009
   564	0.748397	0	1.2245e-009
   565	0.71345	0	1.2245e-009
   566	0.642603	0	1.2245e-009
   567	0.430695	0	1.2245e-009
   568	0.795322	0	1.2245e-009
   569	0.792948	0	1.2245e-009
   570	0.789445	0	1.2245e-009
   571	0.78152	0	1.2245e-009
   572	0.768569	0	1.2245e-009
   573	0.74638	0	1.2245e-009
   574	0.705682	0	1.2245e-009
   575	0.617119	0	1.2245e-009
   576	0.287113	0	1.2245e-009

Measurement: iin1pp1
  step	PP(i(rrin1))	FROM	TO
     1	0.49997	0	1.2245e-009
     2	0.459972	0	1.2245e-009
     3	0.419975	0	1.2245e-009
     4	0.359978	0	1.2245e-009
     5	0.299982	0	1.2245e-009
     6	0.239986	0	1.2245e-009
     7	0.179989	0	1.2245e-009
     8	0.119992	0	1.2245e-009
     9	0.059995	0	1.2245e-009
    10	0.49997	0	1.2245e-009
    11	0.459972	0	1.2245e-009
    12	0.419975	0	1.2245e-009
    13	0.359978	0	1.2245e-009
    14	0.299982	0	1.2245e-009
    15	0.239986	0	1.2245e-009
    16	0.179989	0	1.2245e-009
    17	0.119993	0	1.2245e-009
    18	0.0599941	0	1.2245e-009
    19	0.49997	0	1.2245e-009
    20	0.459972	0	1.2245e-009
    21	0.419975	0	1.2245e-009
    22	0.359978	0	1.2245e-009
    23	0.299982	0	1.2245e-009
    24	0.239986	0	1.2245e-009
    25	0.179989	0	1.2245e-009
    26	0.119992	0	1.2245e-009
    27	0.0599964	0	1.2245e-009
    28	0.49997	0	1.2245e-009
    29	0.459972	0	1.2245e-009
    30	0.419975	0	1.2245e-009
    31	0.359978	0	1.2245e-009
    32	0.299982	0	1.2245e-009
    33	0.239985	0	1.2245e-009
    34	0.179989	0	1.2245e-009
    35	0.119993	0	1.2245e-009
    36	0.0599964	0	1.2245e-009
    37	0.49997	0	1.2245e-009
    38	0.459972	0	1.2245e-009
    39	0.419975	0	1.2245e-009
    40	0.359978	0	1.2245e-009
    41	0.299982	0	1.2245e-009
    42	0.239986	0	1.2245e-009
    43	0.179988	0	1.2245e-009
    44	0.11999	0	1.2245e-009
    45	0.0599964	0	1.2245e-009
    46	0.49997	0	1.2245e-009
    47	0.459972	0	1.2245e-009
    48	0.419975	0	1.2245e-009
    49	0.359978	0	1.2245e-009
    50	0.299982	0	1.2245e-009
    51	0.239986	0	1.2245e-009
    52	0.179989	0	1.2245e-009
    53	0.119993	0	1.2245e-009
    54	0.0599962	0	1.2245e-009
    55	0.49997	0	1.2245e-009
    56	0.459972	0	1.2245e-009
    57	0.419975	0	1.2245e-009
    58	0.359978	0	1.2245e-009
    59	0.299982	0	1.2245e-009
    60	0.239986	0	1.2245e-009
    61	0.179985	0	1.2245e-009
    62	0.11999	0	1.2245e-009
    63	0.0599811	0	1.2245e-009
    64	0.49997	0	1.2245e-009
    65	0.459972	0	1.2245e-009
    66	0.419975	0	1.2245e-009
    67	0.359978	0	1.2245e-009
    68	0.299982	0	1.2245e-009
    69	0.239986	0	1.2245e-009
    70	0.179989	0	1.2245e-009
    71	0.119989	0	1.2245e-009
    72	0.0599695	0	1.2245e-009
    73	0.49997	0	1.2245e-009
    74	0.459961	0	1.2245e-009
    75	0.419975	0	1.2245e-009
    76	0.35997	0	1.2245e-009
    77	0.299982	0	1.2245e-009
    78	0.239986	0	1.2245e-009
    79	0.179978	0	1.2245e-009
    80	0.11999	0	1.2245e-009
    81	0.0599707	0	1.2245e-009
    82	0.499958	0	1.2245e-009
    83	0.459972	0	1.2245e-009
    84	0.419965	0	1.2245e-009
    85	0.359978	0	1.2245e-009
    86	0.299982	0	1.2245e-009
    87	0.239986	0	1.2245e-009
    88	0.179985	0	1.2245e-009
    89	0.119993	0	1.2245e-009
    90	0.0599962	0	1.2245e-009
    91	0.49997	0	1.2245e-009
    92	0.459972	0	1.2245e-009
    93	0.419975	0	1.2245e-009
    94	0.359978	0	1.2245e-009
    95	0.299982	0	1.2245e-009
    96	0.239986	0	1.2245e-009
    97	0.179989	0	1.2245e-009
    98	0.119985	0	1.2245e-009
    99	0.0599925	0	1.2245e-009
   100	0.49997	0	1.2245e-009
   101	0.459972	0	1.2245e-009
   102	0.419975	0	1.2245e-009
   103	0.359978	0	1.2245e-009
   104	0.299982	0	1.2245e-009
   105	0.239986	0	1.2245e-009
   106	0.179989	0	1.2245e-009
   107	0.119992	0	1.2245e-009
   108	0.059995	0	1.2245e-009
   109	0.49997	0	1.2245e-009
   110	0.459972	0	1.2245e-009
   111	0.419975	0	1.2245e-009
   112	0.359978	0	1.2245e-009
   113	0.29998	0	1.2245e-009
   114	0.23998	0	1.2245e-009
   115	0.179989	0	1.2245e-009
   116	0.119993	0	1.2245e-009
   117	0.0599962	0	1.2245e-009
   118	0.49997	0	1.2245e-009
   119	0.459972	0	1.2245e-009
   120	0.419975	0	1.2245e-009
   121	0.359978	0	1.2245e-009
   122	0.299975	0	1.2245e-009
   123	0.239986	0	1.2245e-009
   124	0.179989	0	1.2245e-009
   125	0.11999	0	1.2245e-009
   126	0.0599931	0	1.2245e-009
   127	0.49997	0	1.2245e-009
   128	0.459972	0	1.2245e-009
   129	0.419975	0	1.2245e-009
   130	0.359978	0	1.2245e-009
   131	0.299982	0	1.2245e-009
   132	0.239986	0	1.2245e-009
   133	0.179989	0	1.2245e-009
   134	0.119993	0	1.2245e-009
   135	0.0599899	0	1.2245e-009
   136	0.499958	0	1.2245e-009
   137	0.459972	0	1.2245e-009
   138	0.419975	0	1.2245e-009
   139	0.359978	0	1.2245e-009
   140	0.299982	0	1.2245e-009
   141	0.239986	0	1.2245e-009
   142	0.179989	0	1.2245e-009
   143	0.119993	0	1.2245e-009
   144	0.0599957	0	1.2245e-009
   145	0.49997	0	1.2245e-009
   146	0.459972	0	1.2245e-009
   147	0.419965	0	1.2245e-009
   148	0.359978	0	1.2245e-009
   149	0.299982	0	1.2245e-009
   150	0.239986	0	1.2245e-009
   151	0.179989	0	1.2245e-009
   152	0.119991	0	1.2245e-009
   153	0.0599733	0	1.2245e-009
   154	0.499958	0	1.2245e-009
   155	0.459972	0	1.2245e-009
   156	0.419975	0	1.2245e-009
   157	0.359975	0	1.2245e-009
   158	0.299982	0	1.2245e-009
   159	0.239986	0	1.2245e-009
   160	0.179989	0	1.2245e-009
   161	0.119993	0	1.2245e-009
   162	0.0599879	0	1.2245e-009
   163	0.49997	0	1.2245e-009
   164	0.459972	0	1.2245e-009
   165	0.419975	0	1.2245e-009
   166	0.359978	0	1.2245e-009
   167	0.299982	0	1.2245e-009
   168	0.239986	0	1.2245e-009
   169	0.179989	0	1.2245e-009
   170	0.119993	0	1.2245e-009
   171	0.0599964	0	1.2245e-009
   172	0.49997	0	1.2245e-009
   173	0.459972	0	1.2245e-009
   174	0.419975	0	1.2245e-009
   175	0.359978	0	1.2245e-009
   176	0.299982	0	1.2245e-009
   177	0.239986	0	1.2245e-009
   178	0.179985	0	1.2245e-009
   179	0.119992	0	1.2245e-009
   180	0.0599959	0	1.2245e-009
   181	0.49997	0	1.2245e-009
   182	0.459972	0	1.2245e-009
   183	0.419975	0	1.2245e-009
   184	0.359978	0	1.2245e-009
   185	0.299982	0	1.2245e-009
   186	0.239986	0	1.2245e-009
   187	0.179985	0	1.2245e-009
   188	0.119992	0	1.2245e-009
   189	0.059995	0	1.2245e-009
   190	0.49997	0	1.2245e-009
   191	0.459972	0	1.2245e-009
   192	0.419975	0	1.2245e-009
   193	0.359978	0	1.2245e-009
   194	0.299982	0	1.2245e-009
   195	0.23998	0	1.2245e-009
   196	0.179989	0	1.2245e-009
   197	0.119993	0	1.2245e-009
   198	0.0599964	0	1.2245e-009
   199	0.49997	0	1.2245e-009
   200	0.459972	0	1.2245e-009
   201	0.419975	0	1.2245e-009
   202	0.359978	0	1.2245e-009
   203	0.299982	0	1.2245e-009
   204	0.239986	0	1.2245e-009
   205	0.179985	0	1.2245e-009
   206	0.119993	0	1.2245e-009
   207	0.0599923	0	1.2245e-009
   208	0.49997	0	1.2245e-009
   209	0.459972	0	1.2245e-009
   210	0.419975	0	1.2245e-009
   211	0.359978	0	1.2245e-009
   212	0.299982	0	1.2245e-009
   213	0.239986	0	1.2245e-009
   214	0.179985	0	1.2245e-009
   215	0.119993	0	1.2245e-009
   216	0.0599719	0	1.2245e-009
   217	0.49997	0	1.2245e-009
   218	0.459972	0	1.2245e-009
   219	0.419975	0	1.2245e-009
   220	0.35997	0	1.2245e-009
   221	0.299982	0	1.2245e-009
   222	0.239984	0	1.2245e-009
   223	0.179989	0	1.2245e-009
   224	0.119976	0	1.2245e-009
   225	0.0599591	0	1.2245e-009
   226	0.49997	0	1.2245e-009
   227	0.459972	0	1.2245e-009
   228	0.419975	0	1.2245e-009
   229	0.359978	0	1.2245e-009
   230	0.299982	0	1.2245e-009
   231	0.23998	0	1.2245e-009
   232	0.179989	0	1.2245e-009
   233	0.119985	0	1.2245e-009
   234	0.0599959	0	1.2245e-009
   235	0.49997	0	1.2245e-009
   236	0.459972	0	1.2245e-009
   237	0.419975	0	1.2245e-009
   238	0.359978	0	1.2245e-009
   239	0.299982	0	1.2245e-009
   240	0.239986	0	1.2245e-009
   241	0.179989	0	1.2245e-009
   242	0.119993	0	1.2245e-009
   243	0.0599932	0	1.2245e-009
   244	0.49997	0	1.2245e-009
   245	0.459972	0	1.2245e-009
   246	0.419975	0	1.2245e-009
   247	0.359978	0	1.2245e-009
   248	0.299982	0	1.2245e-009
   249	0.239986	0	1.2245e-009
   250	0.179985	0	1.2245e-009
   251	0.11999	0	1.2245e-009
   252	0.0599964	0	1.2245e-009
   253	0.49997	0	1.2245e-009
   254	0.459972	0	1.2245e-009
   255	0.419975	0	1.2245e-009
   256	0.359978	0	1.2245e-009
   257	0.299982	0	1.2245e-009
   258	0.239986	0	1.2245e-009
   259	0.179989	0	1.2245e-009
   260	0.119993	0	1.2245e-009
   261	0.059995	0	1.2245e-009
   262	0.49997	0	1.2245e-009
   263	0.459972	0	1.2245e-009
   264	0.419975	0	1.2245e-009
   265	0.359978	0	1.2245e-009
   266	0.299982	0	1.2245e-009
   267	0.239986	0	1.2245e-009
   268	0.179985	0	1.2245e-009
   269	0.119993	0	1.2245e-009
   270	0.059995	0	1.2245e-009
   271	0.49997	0	1.2245e-009
   272	0.459972	0	1.2245e-009
   273	0.419975	0	1.2245e-009
   274	0.35997	0	1.2245e-009
   275	0.299982	0	1.2245e-009
   276	0.239986	0	1.2245e-009
   277	0.179978	0	1.2245e-009
[...]
   479	0.35575	0	1.2245e-009
   480	0.34062	0	1.2245e-009
   481	0.31794	0	1.2245e-009
   482	0.294997	0	1.2245e-009
   483	0.271542	0	1.2245e-009
   484	0.247194	0	1.2245e-009
   485	0.220657	0	1.2245e-009
   486	0.089729	0	1.2245e-009
   487	0.372352	0	1.2245e-009
   488	0.355673	0	1.2245e-009
   489	0.339414	0	1.2245e-009
   490	0.315246	0	1.2245e-009
   491	0.291088	0	1.2245e-009
   492	0.266767	0	1.2245e-009
   493	0.242054	0	1.2245e-009
   494	0.216286	0	1.2245e-009
   495	0.188364	0	1.2245e-009
   496	0.372517	0	1.2245e-009
   497	0.354104	0	1.2245e-009
   498	0.336714	0	1.2245e-009
   499	0.310998	0	1.2245e-009
   500	0.285455	0	1.2245e-009
   501	0.259921	0	1.2245e-009
   502	0.234028	0	1.2245e-009
   503	0.206904	0	1.2245e-009
   504	0.17615	0	1.2245e-009
   505	0.341083	0	1.2245e-009
   506	0.331915	0	1.2245e-009
   507	0.322703	0	1.2245e-009
   508	0.294696	0	1.2245e-009
   509	0.243752	0	1.2245e-009
   510	0.110986	0	1.2245e-009
   511	0.0772901	0	1.2245e-009
   512	0.0495908	0	1.2245e-009
   513	0.0243273	0	1.2245e-009
   514	0.358868	0	1.2245e-009
   515	0.34958	0	1.2245e-009
   516	0.339603	0	1.2245e-009
   517	0.319351	0	1.2245e-009
   518	0.295106	0	1.2245e-009
   519	0.265948	0	1.2245e-009
   520	0.134748	0	1.2245e-009
   521	0.074275	0	1.2245e-009
   522	0.0351314	0	1.2245e-009
   523	0.366356	0	1.2245e-009
   524	0.356415	0	1.2245e-009
   525	0.345663	0	1.2245e-009
   526	0.324284	0	1.2245e-009
   527	0.30138	0	1.2245e-009
   528	0.276535	0	1.2245e-009
   529	0.247239	0	1.2245e-009
   530	0.105575	0	1.2245e-009
   531	0.0455973	0	1.2245e-009
   532	0.369259	0	1.2245e-009
   533	0.358868	0	1.2245e-009
   534	0.347378	0	1.2245e-009
   535	0.325309	0	1.2245e-009
   536	0.302486	0	1.2245e-009
   537	0.278347	0	1.2245e-009
   538	0.251496	0	1.2245e-009
   539	0.213898	0	1.2245e-009
   540	0.0525291	0	1.2245e-009
   541	0.371714	0	1.2245e-009
   542	0.360793	0	1.2245e-009
   543	0.348082	0	1.2245e-009
   544	0.325684	0	1.2245e-009
   545	0.302764	0	1.2245e-009
   546	0.278908	0	1.2245e-009
   547	0.25329	0	1.2245e-009
   548	0.222358	0	1.2245e-009
   549	0.0613308	0	1.2245e-009
   550	0.373773	0	1.2245e-009
   551	0.362248	0	1.2245e-009
   552	0.348346	0	1.2245e-009
   553	0.325561	0	1.2245e-009
   554	0.302417	0	1.2245e-009
   555	0.278608	0	1.2245e-009
   556	0.253601	0	1.2245e-009
   557	0.225409	0	1.2245e-009
   558	0.0733537	0	1.2245e-009
   559	0.378007	0	1.2245e-009
   560	0.363541	0	1.2245e-009
   561	0.347307	0	1.2245e-009
   562	0.323136	0	1.2245e-009
   563	0.29893	0	1.2245e-009
   564	0.274523	0	1.2245e-009
   565	0.249653	0	1.2245e-009
   566	0.223579	0	1.2245e-009
   567	0.19482	0	1.2245e-009
   568	0.380044	0	1.2245e-009
   569	0.361864	0	1.2245e-009
   570	0.344519	0	1.2245e-009
   571	0.318849	0	1.2245e-009
   572	0.293344	0	1.2245e-009
   573	0.267834	0	1.2245e-009
   574	0.242006	0	1.2245e-009
   575	0.215074	0	1.2245e-009
   576	0.185441	0	1.2245e-009

Measurement: vdpk
  step	MAX(v(dk1_int1)-v(da1_int1))	FROM	TO
     1	28.5007	0	1.2245e-009
     2	28.0429	0	1.2245e-009
     3	27.5638	0	1.2245e-009
     4	26.8039	0	1.2245e-009
     5	25.9696	0	1.2245e-009
     6	25.0343	0	1.2245e-009
     7	23.9331	0	1.2245e-009
     8	22.3643	0	1.2245e-009
     9	11.6839	0	1.2245e-009
    10	28.3229	0	1.2245e-009
    11	27.8452	0	1.2245e-009
    12	27.3512	0	1.2245e-009
    13	26.5678	0	1.2245e-009
    14	25.7253	0	1.2245e-009
    15	24.8101	0	1.2245e-009
    16	23.799	0	1.2245e-009
    17	22.6272	0	1.2245e-009
    18	21.1269	0	1.2245e-009
    19	28.1704	0	1.2245e-009
    20	27.6781	0	1.2245e-009
    21	27.1669	0	1.2245e-009
    22	26.3607	0	1.2245e-009
    23	25.4952	0	1.2245e-009
    24	24.56	0	1.2245e-009
    25	23.5343	0	1.2245e-009
    26	22.3663	0	1.2245e-009
    27	20.9824	0	1.2245e-009
    28	28.0905	0	1.2245e-009
    29	27.5902	0	1.2245e-009
    30	27.0713	0	1.2245e-009
    31	26.2515	0	1.2245e-009
    32	25.3726	0	1.2245e-009
    33	24.4229	0	1.2245e-009
    34	23.3815	0	1.2245e-009
    35	22.1935	0	1.2245e-009
    36	20.7805	0	1.2245e-009
    37	28.0095	0	1.2245e-009
    38	27.5014	0	1.2245e-009
    39	26.9743	0	1.2245e-009
    40	26.1413	0	1.2245e-009
    41	25.2482	0	1.2245e-009
    42	24.2833	0	1.2245e-009
    43	23.2211	0	1.2245e-009
    44	22.0035	0	1.2245e-009
    45	20.5223	0	1.2245e-009
    46	27.9285	0	1.2245e-009
    47	27.4126	0	1.2245e-009
    48	26.8773	0	1.2245e-009
    49	26.0305	0	1.2245e-009
    50	25.1232	0	1.2245e-009
    51	24.1415	0	1.2245e-009
    52	23.056	0	1.2245e-009
    53	21.8015	0	1.2245e-009
    54	20.1964	0	1.2245e-009
    55	27.6899	0	1.2245e-009
    56	27.1518	0	1.2245e-009
    57	26.5915	0	1.2245e-009
    58	25.7071	0	1.2245e-009
    59	24.7548	0	1.2245e-009
    60	23.7187	0	1.2245e-009
    61	22.5505	0	1.2245e-009
    62	21.147	0	1.2245e-009
    63	18.3947	0	1.2245e-009
    64	27.4643	0	1.2245e-009
    65	26.9057	0	1.2245e-009
    66	26.3238	0	1.2245e-009
    67	25.4025	0	1.2245e-009
    68	24.4073	0	1.2245e-009
    69	23.3132	0	1.2245e-009
    70	22.0504	0	1.2245e-009
    71	20.4427	0	1.2245e-009
    72	16.6824	0	1.2245e-009
    73	30.4018	0	1.2245e-009
    74	29.9214	0	1.2245e-009
    75	29.4192	0	1.2245e-009
    76	28.6122	0	1.2245e-009
    77	27.7163	0	1.2245e-009
    78	26.6883	0	1.2245e-009
    79	25.4029	0	1.2245e-009
    80	22.5332	0	1.2245e-009
    81	11.6664	0	1.2245e-009
    82	30.2111	0	1.2245e-009
    83	29.7154	0	1.2245e-009
    84	29.2023	0	1.2245e-009
    85	28.3888	0	1.2245e-009
    86	27.5095	0	1.2245e-009
    87	26.5483	0	1.2245e-009
    88	25.4747	0	1.2245e-009
    89	24.193	0	1.2245e-009
    90	15.301	0	1.2245e-009
    91	30.0381	0	1.2245e-009
    92	29.5297	0	1.2245e-009
    93	29.0017	0	1.2245e-009
    94	28.1672	0	1.2245e-009
    95	27.2705	0	1.2245e-009
    96	26.3005	0	1.2245e-009
    97	25.2342	0	1.2245e-009
    98	24.0134	0	1.2245e-009
    99	22.5337	0	1.2245e-009
   100	29.9469	0	1.2245e-009
   101	29.4304	0	1.2245e-009
   102	28.8943	0	1.2245e-009
   103	28.048	0	1.2245e-009
   104	27.1397	0	1.2245e-009
   105	26.1581	0	1.2245e-009
   106	25.082	0	1.2245e-009
   107	23.8562	0	1.2245e-009
   108	22.4027	0	1.2245e-009
   109	29.8539	0	1.2245e-009
   110	29.3297	0	1.2245e-009
   111	28.7858	0	1.2245e-009
   112	27.9261	0	1.2245e-009
   113	27.005	0	1.2245e-009
   114	26.0102	0	1.2245e-009
   115	24.9182	0	1.2245e-009
   116	23.6716	0	1.2245e-009
   117	22.1941	0	1.2245e-009
   118	29.7604	0	1.2245e-009
   119	29.2284	0	1.2245e-009
   120	28.6764	0	1.2245e-009
   121	27.8039	0	1.2245e-009
   122	26.8686	0	1.2245e-009
   123	25.8586	0	1.2245e-009
   124	24.7468	0	1.2245e-009
   125	23.4727	0	1.2245e-009
   126	21.9313	0	1.2245e-009
   127	29.4841	0	1.2245e-009
   128	28.9294	0	1.2245e-009
   129	28.3529	0	1.2245e-009
   130	27.441	0	1.2245e-009
   131	26.4619	0	1.2245e-009
   132	25.3988	0	1.2245e-009
   133	24.2098	0	1.2245e-009
   134	22.8045	0	1.2245e-009
   135	20.4026	0	1.2245e-009
   136	29.2216	0	1.2245e-009
   137	28.6456	0	1.2245e-009
   138	28.0467	0	1.2245e-009
   139	27.0967	0	1.2245e-009
   140	26.0733	0	1.2245e-009
   141	24.9519	0	1.2245e-009
   142	23.6686	0	1.2245e-009
   143	22.0737	0	1.2245e-009
   144	18.4966	0	1.2245e-009
   145	32.3001	0	1.2245e-009
   146	31.7929	0	1.2245e-009
   147	31.2635	0	1.2245e-009
   148	30.4015	0	1.2245e-009
   149	29.428	0	1.2245e-009
   150	28.2682	0	1.2245e-009
   151	26.6392	0	1.2245e-009
   152	16.1579	0	1.2245e-009
   153	11.8057	0	1.2245e-009
   154	32.1061	0	1.2245e-009
   155	31.5933	0	1.2245e-009
   156	31.0597	0	1.2245e-009
   157	30.2117	0	1.2245e-009
   158	29.2908	0	1.2245e-009
   159	28.2754	0	1.2245e-009
   160	27.1204	0	1.2245e-009
   161	25.6634	0	1.2245e-009
   162	14.2439	0	1.2245e-009
   163	31.9163	0	1.2245e-009
   164	31.3903	0	1.2245e-009
   165	30.8451	0	1.2245e-009
   166	29.9811	0	1.2245e-009
   167	29.0517	0	1.2245e-009
   168	28.0422	0	1.2245e-009
   169	26.9272	0	1.2245e-009
   170	25.6305	0	1.2245e-009
   171	23.9536	0	1.2245e-009
   172	31.8137	0	1.2245e-009
   173	31.2812	0	1.2245e-009
   174	30.7284	0	1.2245e-009
   175	29.8542	0	1.2245e-009
   176	28.9151	0	1.2245e-009
   177	27.8992	0	1.2245e-009
   178	26.7826	0	1.2245e-009
   179	25.5027	0	1.2245e-009
   180	23.9489	0	1.2245e-009
   181	31.7094	0	1.2245e-009
   182	31.1691	0	1.2245e-009
   183	30.6082	0	1.2245e-009
   184	29.7227	0	1.2245e-009
   185	28.7723	0	1.2245e-009
   186	27.7456	0	1.2245e-009
   187	26.6199	0	1.2245e-009
   188	25.3362	0	1.2245e-009
   189	23.8146	0	1.2245e-009
   190	31.6038	0	1.2245e-009
   191	31.056	0	1.2245e-009
   192	30.4875	0	1.2245e-009
   193	29.5884	0	1.2245e-009
   194	28.6258	0	1.2245e-009
   195	27.5863	0	1.2245e-009
   196	26.4452	0	1.2245e-009
   197	25.143	0	1.2245e-009
   198	23.6002	0	1.2245e-009
   199	31.2898	0	1.2245e-009
   200	30.7189	0	1.2245e-009
   201	30.1264	0	1.2245e-009
   202	29.1886	0	1.2245e-009
   203	28.1828	0	1.2245e-009
   204	27.0939	0	1.2245e-009
   205	25.8831	0	1.2245e-009
   206	24.4717	0	1.2245e-009
   207	22.4618	0	1.2245e-009
   208	30.9899	0	1.2245e-009
   209	30.3978	0	1.2245e-009
   210	29.7813	0	1.2245e-009
   211	28.8047	0	1.2245e-009
   212	27.7544	0	1.2245e-009
   213	26.6077	0	1.2245e-009
   214	25.3049	0	1.2245e-009
   215	23.7192	0	1.2245e-009
   216	20.4065	0	1.2245e-009
   217	34.1906	0	1.2245e-009
   218	33.6562	0	1.2245e-009
   219	33.0907	0	1.2245e-009
   220	32.1613	0	1.2245e-009
   221	31.0836	0	1.2245e-009
   222	29.7204	0	1.2245e-009
   223	27.0287	0	1.2245e-009
   224	15.7442	0	1.2245e-009
   225	12.0368	0	1.2245e-009
   226	34.0056	0	1.2245e-009
   227	33.4731	0	1.2245e-009
   228	32.9174	0	1.2245e-009
   229	32.0321	0	1.2245e-009
   230	31.0636	0	1.2245e-009
   231	29.9815	0	1.2245e-009
   232	28.7157	0	1.2245e-009
   233	26.9423	0	1.2245e-009
   234	13.9493	0	1.2245e-009
   235	33.8014	0	1.2245e-009
   236	33.2592	0	1.2245e-009
   237	32.6952	0	1.2245e-009
   238	31.8012	0	1.2245e-009
   239	30.8351	0	1.2245e-009
   240	29.7807	0	1.2245e-009
   241	28.6045	0	1.2245e-009
   242	27.1985	0	1.2245e-009
   243	16.8434	0	1.2245e-009
   244	33.6899	0	1.2245e-009
   245	33.1407	0	1.2245e-009
   246	32.5704	0	1.2245e-009
   247	31.6675	0	1.2245e-009
   248	30.6959	0	1.2245e-009
   249	29.641	0	1.2245e-009
   250	28.4758	0	1.2245e-009
   251	27.1207	0	1.2245e-009
   252	25.3666	0	1.2245e-009
   253	33.5746	0	1.2245e-009
   254	33.018	0	1.2245e-009
   255	32.4409	0	1.2245e-009
   256	31.5277	0	1.2245e-009
   257	30.5466	0	1.2245e-009
   258	29.4861	0	1.2245e-009
   259	28.3202	0	1.2245e-009
   260	26.9831	0	1.2245e-009
   261	25.3589	0	1.2245e-009
   262	33.4575	0	1.2245e-009
   263	32.8939	0	1.2245e-009
   264	32.3082	0	1.2245e-009
   265	31.3842	0	1.2245e-009
   266	30.3924	0	1.2245e-009
   267	29.3212	0	1.2245e-009
   268	28.1468	0	1.2245e-009
   269	26.8066	0	1.2245e-009
   270	25.2186	0	1.2245e-009
   271	33.1069	0	1.2245e-009
   272	32.5205	0	1.2245e-009
   273	31.9115	0	1.2245e-009
   274	30.9486	0	1.2245e-009
   275	29.9162	0	1.2245e-009
   276	28.8015	0	1.2245e-009
   277	27.5681	0	1.2245e-009
   278	26.1452	0	1.2245e-009
   279	24.3696	0	1.2245e-009
   280	32.7699	0	1.2245e-009
   281	32.1612	0	1.2245e-009
   282	31.5284	0	1.2245e-009
   283	30.5261	0	1.2245e-009
   284	29.4495	0	1.2245e-009
   285	28.2782	0	1.2245e-009
   286	26.9571	0	1.2245e-009
   287	25.377	0	1.2245e-009
   288	22.3914	0	1.2245e-009
   289	36.067	0	1.2245e-009
   290	35.4987	0	1.2245e-009
   291	34.8911	0	1.2245e-009
   292	33.876	0	1.2245e-009
   293	32.6489	0	1.2245e-009
   294	30.9182	0	1.2245e-009
   295	20.1875	0	1.2245e-009
   296	15.6351	0	1.2245e-009
   297	12.327	0	1.2245e-009
   298	35.9066	0	1.2245e-009
   299	35.3523	0	1.2245e-009
   300	34.7743	0	1.2245e-009
   301	33.8462	0	1.2245e-009
   302	32.8209	0	1.2245e-009
   303	31.654	0	1.2245e-009
   304	30.2273	0	1.2245e-009
   305	27.6303	0	1.2245e-009
   306	13.9235	0	1.2245e-009
   307	35.6934	0	1.2245e-009
   308	35.1329	0	1.2245e-009
   309	34.5496	0	1.2245e-009
   310	33.622	0	1.2245e-009
   311	32.6168	0	1.2245e-009
   312	31.5098	0	1.2245e-009
   313	30.2549	0	1.2245e-009
   314	28.6818	0	1.2245e-009
   315	15.8721	0	1.2245e-009
   316	35.5732	0	1.2245e-009
   317	35.0071	0	1.2245e-009
   318	34.4186	0	1.2245e-009
   319	33.4852	0	1.2245e-009
   320	32.4785	0	1.2245e-009
   321	31.3794	0	1.2245e-009
   322	30.1535	0	1.2245e-009
   323	28.6914	0	1.2245e-009
   324	17.7133	0	1.2245e-009
   325	35.4476	0	1.2245e-009
   326	34.8756	0	1.2245e-009
   327	34.2808	0	1.2245e-009
   328	33.3396	0	1.2245e-009
   329	32.3266	0	1.2245e-009
   330	31.2274	0	1.2245e-009
   331	30.0135	0	1.2245e-009
   332	28.6024	0	1.2245e-009
   333	26.78	0	1.2245e-009
   334	35.3203	0	1.2245e-009
   335	34.7404	0	1.2245e-009
   336	34.1392	0	1.2245e-009
   337	33.1877	0	1.2245e-009
   338	32.1657	0	1.2245e-009
   339	31.0605	0	1.2245e-009
   340	29.8469	0	1.2245e-009
   341	28.4542	0	1.2245e-009
   342	26.7634	0	1.2245e-009
   343	34.934	0	1.2245e-009
   344	34.3323	0	1.2245e-009
   345	33.7074	0	1.2245e-009
   346	32.7195	0	1.2245e-009
   347	31.6611	0	1.2245e-009
   348	30.5192	0	1.2245e-009
   349	29.2614	0	1.2245e-009
   350	27.8202	0	1.2245e-009
   351	26.09	0	1.2245e-009
   352	34.5599	0	1.2245e-009
   353	33.9356	0	1.2245e-009
   354	33.2863	0	1.2245e-009
   355	32.2595	0	1.2245e-009
   356	31.1575	0	1.2245e-009
   357	29.9619	0	1.2245e-009
   358	28.6227	0	1.2245e-009
   359	27.0438	0	1.2245e-009
   360	24.4303	0	1.2245e-009
   361	37.923	0	1.2245e-009
   362	37.313	0	1.2245e-009
   363	36.6533	0	1.2245e-009
   364	35.5216	0	1.2245e-009
   365	34.0642	0	1.2245e-009
   366	31.2643	0	1.2245e-009
   367	19.4509	0	1.2245e-009
   368	15.6842	0	1.2245e-009
   369	12.6577	0	1.2245e-009
   370	37.8063	0	1.2245e-009
   371	37.2296	0	1.2245e-009
   372	36.6244	0	1.2245e-009
   373	35.647	0	1.2245e-009
   374	34.5523	0	1.2245e-009
   375	33.2746	0	1.2245e-009
   376	31.5909	0	1.2245e-009
   377	19.5591	0	1.2245e-009
   378	14.0392	0	1.2245e-009
   379	37.589	0	1.2245e-009
   380	37.0095	0	1.2245e-009
   381	36.4051	0	1.2245e-009
   382	35.4424	0	1.2245e-009
   383	34.391	0	1.2245e-009
   384	33.2206	0	1.2245e-009
   385	31.8629	0	1.2245e-009
   386	30.0101	0	1.2245e-009
   387	15.5607	0	1.2245e-009
   388	37.4615	0	1.2245e-009
   389	36.8778	0	1.2245e-009
   390	36.2707	0	1.2245e-009
   391	35.3055	0	1.2245e-009
   392	34.259	0	1.2245e-009
   393	33.1084	0	1.2245e-009
   394	31.8071	0	1.2245e-009
   395	30.1843	0	1.2245e-009
   396	16.7324	0	1.2245e-009
   397	37.3284	0	1.2245e-009
   398	36.7384	0	1.2245e-009
   399	36.1264	0	1.2245e-009
   400	35.1557	0	1.2245e-009
   401	34.1076	0	1.2245e-009
   402	32.9647	0	1.2245e-009
   403	31.6926	0	1.2245e-009
   404	30.177	0	1.2245e-009
   405	18.6463	0	1.2245e-009
   406	37.1908	0	1.2245e-009
   407	36.5952	0	1.2245e-009
   408	35.9764	0	1.2245e-009
   409	34.9972	0	1.2245e-009
   410	33.9437	0	1.2245e-009
   411	32.8011	0	1.2245e-009
   412	31.5401	0	1.2245e-009
   413	30.0751	0	1.2245e-009
   414	28.1917	0	1.2245e-009
   415	36.7701	0	1.2245e-009
   416	36.1533	0	1.2245e-009
   417	35.5129	0	1.2245e-009
   418	34.5	0	1.2245e-009
   419	33.4151	0	1.2245e-009
   420	32.2448	0	1.2245e-009
   421	30.9597	0	1.2245e-009
   422	29.4904	0	1.2245e-009
   423	27.7597	0	1.2245e-009
   424	36.3595	0	1.2245e-009
   425	35.7201	0	1.2245e-009
   426	35.0554	0	1.2245e-009
   427	34.0036	0	1.2245e-009
   428	32.8769	0	1.2245e-009
   429	31.6575	0	1.2245e-009
   430	30.2991	0	1.2245e-009
   431	28.7167	0	1.2245e-009
   432	26.5017	0	1.2245e-009
   433	39.7489	0	1.2245e-009
   434	39.0856	0	1.2245e-009
   435	38.3591	0	1.2245e-009
   436	37.0603	0	1.2245e-009
   437	35.1838	0	1.2245e-009
   438	23.8107	0	1.2245e-009
   439	19.1605	0	1.2245e-009
   440	15.8316	0	1.2245e-009
   441	13.018	0	1.2245e-009
   442	39.7014	0	1.2245e-009
   443	39.0988	0	1.2245e-009
   444	38.4634	0	1.2245e-009
   445	37.4283	0	1.2245e-009
   446	36.2472	0	1.2245e-009
   447	34.8153	0	1.2245e-009
   448	32.63	0	1.2245e-009
   449	18.9446	0	1.2245e-009
   450	14.243	0	1.2245e-009
   451	39.4854	0	1.2245e-009
   452	38.8867	0	1.2245e-009
   453	38.2599	0	1.2245e-009
   454	37.2568	0	1.2245e-009
   455	36.1524	0	1.2245e-009
   456	34.9045	0	1.2245e-009
   457	33.4044	0	1.2245e-009
   458	30.9644	0	1.2245e-009
   459	15.5069	0	1.2245e-009
   460	39.3549	0	1.2245e-009
   461	38.7523	0	1.2245e-009
   462	38.1246	0	1.2245e-009
   463	37.1237	0	1.2245e-009
   464	36.0329	0	1.2245e-009
   465	34.8214	0	1.2245e-009
   466	33.4215	0	1.2245e-009
   467	31.5398	0	1.2245e-009
   468	16.3995	0	1.2245e-009
   469	39.2142	0	1.2245e-009
   470	38.6076	0	1.2245e-009
   471	37.9764	0	1.2245e-009
   472	36.9733	0	1.2245e-009
   473	35.8864	0	1.2245e-009
   474	34.6944	0	1.2245e-009
   475	33.3487	0	1.2245e-009
   476	31.6807	0	1.2245e-009
   477	17.6259	0	1.2245e-009
   478	39.0679	0	1.2245e-009
   479	38.4558	0	1.2245e-009
   480	37.8196	0	1.2245e-009
   481	36.8109	0	1.2245e-009
   482	35.7231	0	1.2245e-009
   483	34.5383	0	1.2245e-009
   484	33.2203	0	1.2245e-009
   485	31.6546	0	1.2245e-009
   486	19.6454	0	1.2245e-009
   487	38.6153	0	1.2245e-009
   488	37.9825	0	1.2245e-009
   489	37.3268	0	1.2245e-009
   490	36.2883	0	1.2245e-009
   491	35.1758	0	1.2245e-009
   492	33.9769	0	1.2245e-009
   493	32.6603	0	1.2245e-009
   494	31.1567	0	1.2245e-009
   495	29.3804	0	1.2245e-009
   496	38.1685	0	1.2245e-009
   497	37.514	0	1.2245e-009
   498	36.8337	0	1.2245e-009
   499	35.7578	0	1.2245e-009
   500	34.6066	0	1.2245e-009
   501	33.363	0	1.2245e-009
   502	31.9848	0	1.2245e-009
   503	30.393	0	1.2245e-009
   504	28.4136	0	1.2245e-009
   505	40.3024	0	1.2245e-009
   506	40.2283	0	1.2245e-009
   507	39.9819	0	1.2245e-009
   508	38.4192	0	1.2245e-009
   509	35.2837	0	1.2245e-009
   510	22.8677	0	1.2245e-009
   511	19.0784	0	1.2245e-009
   512	16.0464	0	1.2245e-009
   513	13.4002	0	1.2245e-009
   514	40.3179	0	1.2245e-009
   515	40.2544	0	1.2245e-009
   516	40.1492	0	1.2245e-009
   517	39.1805	0	1.2245e-009
   518	37.8884	0	1.2245e-009
   519	36.2257	0	1.2245e-009
   520	25.4426	0	1.2245e-009
   521	18.7056	0	1.2245e-009
   522	14.5055	0	1.2245e-009
   523	40.307	0	1.2245e-009
   524	40.2347	0	1.2245e-009
   525	40.0877	0	1.2245e-009
   526	39.0614	0	1.2245e-009
   527	37.8943	0	1.2245e-009
   528	36.5484	0	1.2245e-009
   529	34.8385	0	1.2245e-009
   530	22.1448	0	1.2245e-009
   531	15.5953	0	1.2245e-009
   532	40.2962	0	1.2245e-009
   533	40.2171	0	1.2245e-009
   534	39.9776	0	1.2245e-009
   535	38.9381	0	1.2245e-009
   536	37.796	0	1.2245e-009
   537	36.5105	0	1.2245e-009
   538	34.9779	0	1.2245e-009
   539	32.5962	0	1.2245e-009
   540	16.3258	0	1.2245e-009
   541	40.2819	0	1.2245e-009
   542	40.1946	0	1.2245e-009
   543	39.8278	0	1.2245e-009
   544	38.7904	0	1.2245e-009
   545	37.6601	0	1.2245e-009
   546	36.4094	0	1.2245e-009
   547	34.9702	0	1.2245e-009
   548	33.0643	0	1.2245e-009
   549	17.2627	0	1.2245e-009
   550	40.2648	0	1.2245e-009
   551	40.1639	0	1.2245e-009
   552	39.6658	0	1.2245e-009
   553	38.6265	0	1.2245e-009
   554	37.5011	0	1.2245e-009
   555	36.2672	0	1.2245e-009
   556	34.8794	0	1.2245e-009
   557	33.17	0	1.2245e-009
   558	18.5555	0	1.2245e-009
   559	40.1965	0	1.2245e-009
   560	39.8196	0	1.2245e-009
   561	39.148	0	1.2245e-009
   562	38.0843	0	1.2245e-009
   563	36.9432	0	1.2245e-009
   564	35.7116	0	1.2245e-009
   565	34.3584	0	1.2245e-009
   566	32.8073	0	1.2245e-009
   567	30.9406	0	1.2245e-009
   568	39.9858	0	1.2245e-009
   569	39.3165	0	1.2245e-009
   570	38.6212	0	1.2245e-009
   571	37.5216	0	1.2245e-009
   572	36.3451	0	1.2245e-009
   573	35.0767	0	1.2245e-009
   574	33.6762	0	1.2245e-009
   575	32.0695	0	1.2245e-009
   576	30.1423	0	1.2245e-009


Date: Sun Dec 15 21:43:22 2013
Total elapsed time: 538.710 seconds.

tnom = 27
temp = 27
method = modified trap
totiter = 100050
traniter = 100046
tranpoints = 50024
accept = 50024
rejected = 0
matrix size = 14
fillins = 2
solver = Normal
Matrix Compiler1: 804 bytes object code size  2.0/1.9/[1.5]
Matrix Compiler2: off  [1.7]/2.0/1.9



