Circuit: * Z:\home\muffin\Documents\fall-2013\6.332\project\simulations\ResonantRectifier3_HBAT540B_v1.asc

Direct Newton iteration for .op point succeeded.
.step iin=0.25
.step iin=0.23
.step iin=0.21
.step iin=0.18
.step iin=0.15
.step iin=0.12
.step iin=0.09
.step iin=0.06
.step iin=0.03


Measurement: pin
  step	AVG(v(rin1)*i(rrin1))	FROM	TO
     1	0.862651	0	1.2245e-009
     2	0.786091	0	1.2245e-009
     3	0.710915	0	1.2245e-009
     4	0.600834	0	1.2245e-009
     5	0.494004	0	1.2245e-009
     6	0.390309	0	1.2245e-009
     7	0.289627	0	1.2245e-009
     8	0.191898	0	1.2245e-009
     9	0.0954347	0	1.2245e-009

Measurement: pout
  step	AVG(v(load)*i(rlf1))	FROM	TO
     1	0.671212	0	1.2245e-009
     2	0.610028	0	1.2245e-009
     3	0.549544	0	1.2245e-009
     4	0.460261	0	1.2245e-009
     5	0.372813	0	1.2245e-009
     6	0.287133	0	1.2245e-009
     7	0.203206	0	1.2245e-009
     8	0.121252	0	1.2245e-009
     9	0.0400378	0	1.2245e-009

Measurement: eff
  step	AVG(pout/pin)	FROM	TO
     1	0.77808	0	1.2245e-009
     2	0.776027	0	1.2245e-009
     3	0.773009	0	1.2245e-009
     4	0.766038	0	1.2245e-009
     5	0.754677	0	1.2245e-009
     6	0.735655	0	1.2245e-009
     7	0.701614	0	1.2245e-009
     8	0.631856	0	1.2245e-009
     9	0.419531	0	1.2245e-009

Measurement: iin1pp1
  step	PP(i(rrin1))	FROM	TO
     1	0.499999	0	1.2245e-009
     2	0.459999	0	1.2245e-009
     3	0.42	0	1.2245e-009
     4	0.359999	0	1.2245e-009
     5	0.3	0	1.2245e-009
     6	0.24	0	1.2245e-009
     7	0.179999	0	1.2245e-009
     8	0.119999	0	1.2245e-009
     9	0.06	0	1.2245e-009

Measurement: vin1pp1
  step	PP(v(rinfund1))	FROM	TO
     1	10.9727	0	1.2245e-009
     2	10.8465	0	1.2245e-009
     3	10.7434	0	1.2245e-009
     4	10.6287	0	1.2245e-009
     5	10.5539	0	1.2245e-009
     6	10.5036	0	1.2245e-009
     7	10.456	0	1.2245e-009
     8	10.3755	0	1.2245e-009
     9	10.1666	0	1.2245e-009

Measurement: zmag1
  step	AVG(vin1pp1/iin1pp1)	FROM	TO
     1	21.9455	0	1.2245e-009
     2	23.5794	0	1.2245e-009
     3	25.5795	0	1.2245e-009
     4	29.5243	0	1.2245e-009
     5	35.1798	0	1.2245e-009
     6	43.765	0	1.2245e-009
     7	58.0894	0	1.2245e-009
     8	86.4633	0	1.2245e-009
     9	169.443	0	1.2245e-009

Measurement: coszphase1
  step	AVG(8*i(rrin1)*v(rinfund1)/(iin1pp1*vin1pp1))	FROM	TO
     1	1.00327	0	1.2245e-009
     2	1.00526	0	1.2245e-009
     3	1.00524	0	1.2245e-009
     4	1.00183	0	1.2245e-009
     5	0.995407	0	1.2245e-009
     6	0.987757	0	1.2245e-009
     7	0.981737	0	1.2245e-009
     8	0.983333	0	1.2245e-009
     9	0.998311	0	1.2245e-009

Measurement: idpk
  step	MAX(i(d1))	FROM	TO
     1	0.34585	0	1.2245e-009
     2	0.330906	0	1.2245e-009
     3	0.316156	0	1.2245e-009
     4	0.294129	0	1.2245e-009
     5	0.271952	0	1.2245e-009
     6	0.249426	0	1.2245e-009
     7	0.22632	0	1.2245e-009
     8	0.201984	0	1.2245e-009
     9	0.174974	0	1.2245e-009

Measurement: vdpk
  step	MAX(v(dk1_int1)-v(da1_int1))	FROM	TO
     1	33.5794	0	1.2245e-009
     2	33.0228	0	1.2245e-009
     3	32.445	0	1.2245e-009
     4	31.5317	0	1.2245e-009
     5	30.5509	0	1.2245e-009
     6	29.4896	0	1.2245e-009
     7	28.3233	0	1.2245e-009
     8	26.9861	0	1.2245e-009
     9	25.3609	0	1.2245e-009


Date: Sun Dec 15 01:04:14 2013
Total elapsed time: 78.270 seconds.

tnom = 27
temp = 27
method = modified trap
totiter = 1000044
traniter = 1000040
tranpoints = 500021
accept = 500021
rejected = 0
matrix size = 14
fillins = 2
solver = Normal
Matrix Compiler1: 804 bytes object code size  2.4/2.1/[1.6]
Matrix Compiler2: off  [1.9]/2.2/3.7



